*SPEF "ieee 1481-1999"
*DESIGN "Control_unit"
*DATE "16:54:24 Sunday November 16, 2025"
*VENDOR "The OpenROAD Project"
*PROGRAM "OpenROAD"
*VERSION "edf00dff99f6c40d67a30c0e22a8191c5d2ed9d6"
*DESIGN_FLOW "NAME_SCOPE LOCAL" "PIN_CAP NONE"
*DIVIDER /
*DELIMITER :
*BUS_DELIMITER []
*T_UNIT 1 NS
*C_UNIT 1 PF
*R_UNIT 1 OHM
*L_UNIT 1 HENRY

*NAME_MAP
*1 ALUControl[0]
*2 ALUControl[1]
*3 ALUControl[2]
*4 ALUControl[3]
*5 ALUSrc
*6 ImmSrc[0]
*7 ImmSrc[1]
*8 MemWrite
*9 PCSrc
*10 RegWrite
*11 ResultSrc
*14 func[0]
*15 func[1]
*16 func[2]
*17 func[3]
*18 opcode[0]
*19 opcode[1]
*20 opcode[2]
*21 zero
*22 _00_
*23 _01_
*24 _02_
*25 _03_
*26 _04_
*27 _05_
*28 _06_
*29 _07_
*30 _08_
*31 _09_
*32 _10_
*33 net1
*34 net10
*35 net11
*36 net12
*37 net13
*38 net14
*39 net15
*40 net16
*41 net17
*42 net18
*43 net19
*44 net2
*45 net20
*46 net21
*47 net22
*48 net23
*49 net3
*50 net4
*51 net5
*52 net6
*53 net7
*54 net8
*55 net9
*56 FILLER_0_13
*57 FILLER_0_27
*58 FILLER_0_35
*59 FILLER_0_9
*60 FILLER_1_10
*61 FILLER_1_18
*62 FILLER_1_44
*63 FILLER_2_19
*64 FILLER_2_27
*65 FILLER_2_29
*66 FILLER_2_38
*67 FILLER_2_7
*68 FILLER_3_21
*69 FILLER_3_3
*70 FILLER_3_33
*71 FILLER_3_42
*72 FILLER_3_7
*73 FILLER_4_16
*74 FILLER_4_20
*75 FILLER_4_34
*76 FILLER_4_7
*77 FILLER_5_15
*78 FILLER_5_23
*79 FILLER_5_28
*80 FILLER_5_40
*81 FILLER_5_7
*82 FILLER_6_18
*83 FILLER_6_26
*84 FILLER_6_43
*85 FILLER_6_6
*86 FILLER_7_12
*87 FILLER_7_16
*88 FILLER_7_21
*89 FILLER_7_27
*90 FILLER_7_29
*91 FILLER_7_6
*92 PHY_EDGE_ROW_0_Left_8
*93 PHY_EDGE_ROW_0_Right_0
*94 PHY_EDGE_ROW_1_Left_9
*95 PHY_EDGE_ROW_1_Right_1
*96 PHY_EDGE_ROW_2_Left_10
*97 PHY_EDGE_ROW_2_Right_2
*98 PHY_EDGE_ROW_3_Left_11
*99 PHY_EDGE_ROW_3_Right_3
*100 PHY_EDGE_ROW_4_Left_12
*101 PHY_EDGE_ROW_4_Right_4
*102 PHY_EDGE_ROW_5_Left_13
*103 PHY_EDGE_ROW_5_Right_5
*104 PHY_EDGE_ROW_6_Left_14
*105 PHY_EDGE_ROW_6_Right_6
*106 PHY_EDGE_ROW_7_Left_15
*107 PHY_EDGE_ROW_7_Right_7
*108 TAP_TAPCELL_ROW_0_16
*109 TAP_TAPCELL_ROW_2_17
*110 TAP_TAPCELL_ROW_4_18
*111 TAP_TAPCELL_ROW_6_19
*112 TAP_TAPCELL_ROW_7_20
*113 _11_
*114 _12_
*115 _13_
*116 _14_
*117 _15_
*118 _16_
*119 _17_
*120 _18_
*121 _19_
*122 _20_
*123 _21_
*124 _22_
*125 _23_
*126 _24_
*127 _25_
*128 _26_
*129 _27_
*130 _28_
*131 _29_
*132 _30_
*133 _31_
*134 _32_
*135 fanout22
*136 fanout23
*137 input1
*138 input2
*139 input3
*140 input4
*141 input5
*142 input6
*143 input7
*144 input8
*145 max_cap20
*146 output10
*147 output11
*148 output12
*149 output13
*150 output14
*151 output15
*152 output16
*153 output17
*154 output18
*155 output19
*156 output9
*157 wire21

*PORTS
ALUControl[0] O
ALUControl[1] O
ALUControl[2] O
ALUControl[3] O
ALUSrc O
ImmSrc[0] O
ImmSrc[1] O
MemWrite O
PCSrc O
RegWrite O
ResultSrc O
func[0] I
func[1] I
func[2] I
func[3] I
opcode[0] I
opcode[1] I
opcode[2] I
zero I

*D_NET *1 0.000973748
*CONN
*P ALUControl[0] O
*I *156:X O *D sky130_fd_sc_hd__buf_2
*CAP
1 ALUControl[0] 0.00045015
2 *156:X 0.00045015
3 ALUControl[0] ALUControl[1] 7.3448e-05
*RES
1 *156:X ALUControl[0] 21.2472 
*END

*D_NET *2 0.000671364
*CONN
*P ALUControl[1] O
*I *146:X O *D sky130_fd_sc_hd__buf_2
*CAP
1 ALUControl[1] 0.000248341
2 *146:X 0.000248341
3 ALUControl[1] *139:A 6.99226e-05
4 ALUControl[1] *146:A 3.13116e-05
5 ALUControl[0] ALUControl[1] 7.3448e-05
*RES
1 *146:X ALUControl[1] 18.8021 
*END

*D_NET *3 0.00112664
*CONN
*P ALUControl[2] O
*I *147:X O *D sky130_fd_sc_hd__buf_2
*CAP
1 ALUControl[2] 0.000497777
2 *147:X 0.000497777
3 ALUControl[2] *125:A_N 4.46186e-06
4 ALUControl[2] *138:A 0.000126629
*RES
1 *147:X ALUControl[2] 23.6036 
*END

*D_NET *4 0.000748907
*CONN
*P ALUControl[3] O
*I *148:X O *D sky130_fd_sc_hd__buf_2
*CAP
1 ALUControl[3] 0.000309433
2 *148:X 0.000309433
3 ALUControl[3] *139:A 6.63071e-05
4 ALUControl[3] *140:A 6.37342e-05
5 ALUControl[3] *46:10 0
*RES
1 *148:X ALUControl[3] 20.5501 
*END

*D_NET *5 0.00081959
*CONN
*P ALUSrc O
*I *149:X O *D sky130_fd_sc_hd__buf_2
*CAP
1 ALUSrc 0.000381498
2 *149:X 0.000381498
3 ALUSrc RegWrite 5.65933e-05
*RES
1 *149:X ALUSrc 21.4959 
*END

*D_NET *6 0.000637034
*CONN
*P ImmSrc[0] O
*I *150:X O *D sky130_fd_sc_hd__buf_2
*CAP
1 ImmSrc[0] 0.000292223
2 *150:X 0.000292223
3 ImmSrc[0] PCSrc 2.99915e-05
4 ImmSrc[0] *144:A 2.25951e-05
*RES
1 *150:X ImmSrc[0] 20.891 
*END

*D_NET *7 0.000725588
*CONN
*P ImmSrc[1] O
*I *151:X O *D sky130_fd_sc_hd__buf_2
*CAP
1 ImmSrc[1] 0.000333414
2 *151:X 0.000333414
3 ImmSrc[1] PCSrc 2.99915e-05
4 ImmSrc[1] *143:A 2.87684e-05
*RES
1 *151:X ImmSrc[1] 20.891 
*END

*D_NET *8 0.0010936
*CONN
*P MemWrite O
*I *152:X O *D sky130_fd_sc_hd__buf_2
*CAP
1 MemWrite 0.000474415
2 *152:X 0.000474415
3 MemWrite *142:A 0
4 MemWrite *51:21 0.000144773
*RES
1 *152:X MemWrite 22.6571 
*END

*D_NET *9 0.000779072
*CONN
*P PCSrc O
*I *153:X O *D sky130_fd_sc_hd__buf_2
*CAP
1 PCSrc 0.000359545
2 *153:X 0.000359545
3 PCSrc *153:A 0
4 ImmSrc[0] PCSrc 2.99915e-05
5 ImmSrc[1] PCSrc 2.99915e-05
*RES
1 *153:X PCSrc 21.4981 
*END

*D_NET *10 0.00100748
*CONN
*P RegWrite O
*I *154:X O *D sky130_fd_sc_hd__buf_2
*CAP
1 RegWrite 0.000438155
2 *154:X 0.000438155
3 RegWrite ResultSrc 5.34304e-05
4 RegWrite *140:A 0
5 RegWrite *149:A 2.11419e-05
6 ALUSrc RegWrite 5.65933e-05
*RES
1 *154:X RegWrite 18.5553 
*END

*D_NET *11 0.000696552
*CONN
*P ResultSrc O
*I *155:X O *D sky130_fd_sc_hd__buf_2
*CAP
1 ResultSrc 0.000293264
2 *155:X 0.000293264
3 ResultSrc *140:A 5.65933e-05
4 RegWrite ResultSrc 5.34304e-05
*RES
1 *155:X ResultSrc 20.2817 
*END

*D_NET *14 0.000835359
*CONN
*P func[0] I
*I *137:A I *D sky130_fd_sc_hd__buf_1
*CAP
1 func[0] 0.00039465
2 *137:A 0.00039465
3 *137:A *132:B 1.72894e-05
4 *137:A *144:A 2.87684e-05
*RES
1 func[0] *137:A 22.4446 
*END

*D_NET *15 0.00211401
*CONN
*P func[1] I
*I *138:A I *D sky130_fd_sc_hd__buf_1
*CAP
1 func[1] 0.000656625
2 *138:A 0.000656625
3 *138:A *121:A_N 0.000227532
4 *138:A *156:A 0
5 *138:A *33:8 0.000360894
6 *138:A *33:17 8.57023e-05
7 ALUControl[2] *138:A 0.000126629
*RES
1 func[1] *138:A 28.7286 
*END

*D_NET *16 0.000482708
*CONN
*P func[2] I
*I *139:A I *D sky130_fd_sc_hd__buf_1
*CAP
1 func[2] 0.000173239
2 *139:A 0.000173239
3 *139:A *140:A 0
4 *139:A *46:14 0
5 ALUControl[1] *139:A 6.99226e-05
6 ALUControl[3] *139:A 6.63071e-05
*RES
1 func[2] *139:A 18.1229 
*END

*D_NET *17 0.00163118
*CONN
*P func[3] I
*I *140:A I *D sky130_fd_sc_hd__clkbuf_1
*CAP
1 func[3] 0.000655445
2 *140:A 0.000655445
3 *140:A *115:A 4.10796e-05
4 *140:A *115:B 5.65955e-05
5 *140:A *120:A 0
6 *140:A *120:D 5.74279e-05
7 *140:A *155:A 4.48647e-05
8 ALUControl[3] *140:A 6.37342e-05
9 RegWrite *140:A 0
10 ResultSrc *140:A 5.65933e-05
11 *139:A *140:A 0
*RES
1 func[3] *140:A 22.3767 
*END

*D_NET *18 0.000574322
*CONN
*P opcode[0] I
*I *141:A I *D sky130_fd_sc_hd__buf_1
*CAP
1 opcode[0] 0.000275863
2 *141:A 0.000275863
3 *141:A *143:A 2.25951e-05
*RES
1 opcode[0] *141:A 20.4803 
*END

*D_NET *19 0.000943469
*CONN
*P opcode[1] I
*I *142:A I *D sky130_fd_sc_hd__buf_1
*CAP
1 opcode[1] 0.00043647
2 *142:A 0.00043647
3 *142:A *152:A 0
4 *142:A *51:21 7.0528e-05
5 MemWrite *142:A 0
*RES
1 opcode[1] *142:A 22.4429 
*END

*D_NET *20 0.000519961
*CONN
*P opcode[2] I
*I *143:A I *D sky130_fd_sc_hd__buf_1
*CAP
1 opcode[2] 0.000234299
2 *143:A 0.000234299
3 *143:A *47:12 0
4 ImmSrc[1] *143:A 2.87684e-05
5 *141:A *143:A 2.25951e-05
*RES
1 opcode[2] *143:A 18.73 
*END

*D_NET *21 0.000649932
*CONN
*P zero I
*I *144:A I *D sky130_fd_sc_hd__clkbuf_1
*CAP
1 zero 0.000289302
2 *144:A 0.000289302
3 *144:A *132:B 1.99644e-05
4 ImmSrc[0] *144:A 2.25951e-05
5 *137:A *144:A 2.87684e-05
*RES
1 zero *144:A 19.6407 
*END

*D_NET *22 0.00414078
*CONN
*I *114:B I *D sky130_fd_sc_hd__or2_1
*I *131:B I *D sky130_fd_sc_hd__and4_1
*I *133:A2 I *D sky130_fd_sc_hd__a31o_1
*I *122:B I *D sky130_fd_sc_hd__and3b_1
*I *113:Y O *D sky130_fd_sc_hd__inv_2
*CAP
1 *114:B 0.000544159
2 *131:B 0.000204004
3 *133:A2 2.23854e-05
4 *122:B 0.000190288
5 *113:Y 0
6 *22:12 0.000308632
7 *22:10 0.000525128
8 *22:4 0.000769326
9 *114:B *116:C 5.52302e-05
10 *114:B *47:70 0.000691922
11 *114:B *52:30 1.69961e-05
12 *122:B *122:C 0.00012401
13 *122:B *133:A3 3.92169e-05
14 *122:B *133:B1 6.05161e-06
15 *122:B *153:A 0
16 *122:B *38:10 5.80706e-06
17 *131:B *131:A 0.000163199
18 *131:B *131:D 0.00010096
19 *131:B *134:A2 5.52302e-05
20 *131:B *134:B1 4.18895e-05
21 *22:10 *122:A_N 2.94103e-05
22 *22:10 *123:B 0
23 *22:10 *48:10 3.57163e-05
24 *22:10 *48:12 3.98131e-05
25 *22:10 *48:18 6.38816e-05
26 *22:10 *53:29 0
27 *22:12 *131:A 5.03772e-05
28 *22:12 *134:B1 5.71472e-05
*RES
1 *113:Y *22:4 9.3 
2 *22:4 *22:10 13.6786 
3 *22:10 *22:12 1.76786 
4 *22:12 *122:B 22.1036 
5 *22:12 *133:A2 9.72857 
6 *22:10 *131:B 13.675 
7 *22:4 *114:B 17.2464 
*END

*D_NET *23 0.000475404
*CONN
*I *118:A I *D sky130_fd_sc_hd__nand2_1
*I *115:B I *D sky130_fd_sc_hd__nor2_1
*I *114:X O *D sky130_fd_sc_hd__or2_1
*CAP
1 *118:A 0
2 *115:B 9.79595e-06
3 *114:X 0.000133335
4 *23:12 0.000143131
5 *115:B *155:A 5.49489e-05
6 *23:12 *117:B 0
7 *23:12 *119:A1 2.89114e-05
8 *23:12 *120:D 2.38651e-06
9 *23:12 *149:A 3.63281e-05
10 *23:12 *24:17 9.97242e-06
11 *140:A *115:B 5.65955e-05
*RES
1 *114:X *23:12 20.4786 
2 *23:12 *115:B 9.83571 
3 *23:12 *118:A 9.3 
*END

*D_NET *24 0.00230486
*CONN
*I *118:B I *D sky130_fd_sc_hd__nand2_1
*I *120:D I *D sky130_fd_sc_hd__nor4_1
*I *119:B1 I *D sky130_fd_sc_hd__o21ai_1
*I *117:Y O *D sky130_fd_sc_hd__nand2b_1
*CAP
1 *118:B 2.36895e-05
2 *120:D 0.000334304
3 *119:B1 0
4 *117:Y 4.05997e-05
5 *24:17 0.000497091
6 *24:6 0.000179697
7 *118:B *155:A 5.52238e-05
8 *120:D *120:C 0
9 *120:D *129:A 0.000186077
10 *120:D *148:A 3.34366e-05
11 *120:D *157:A 1.56e-05
12 *120:D *46:10 5.52302e-05
13 *120:D *50:20 1.32056e-05
14 *24:6 *119:A1 0.000142152
15 *24:6 *119:A2 0.000272321
16 *24:6 *47:70 0.000143375
17 *24:17 *119:A1 4.08637e-05
18 *24:17 *119:A2 5.33005e-05
19 *24:17 *149:A 0.000148903
20 *140:A *120:D 5.74279e-05
21 *23:12 *120:D 2.38651e-06
22 *23:12 *24:17 9.97242e-06
*RES
1 *117:Y *24:6 11.8893 
2 *24:6 *119:B1 9.3 
3 *24:6 *24:17 7.58929 
4 *24:17 *120:D 20.2107 
5 *24:17 *118:B 14.3357 
*END

*D_NET *25 0.00220015
*CONN
*I *145:A I *D sky130_fd_sc_hd__clkbuf_1
*I *128:A3 I *D sky130_fd_sc_hd__a32o_1
*I *120:Y O *D sky130_fd_sc_hd__nor4_1
*CAP
1 *145:A 7.86857e-05
2 *128:A3 0.000430654
3 *120:Y 0.000164901
4 *25:8 0.000674241
5 *128:A3 *124:B2 2.48933e-05
6 *128:A3 *124:C1 4.03318e-05
7 *128:A3 *126:A 9.97164e-05
8 *128:A3 *128:B1 0.000248137
9 *128:A3 *128:B2 0
10 *128:A3 *44:18 4.45768e-06
11 *145:A *126:A 5.33005e-05
12 *145:A *49:6 7.57394e-05
13 *25:8 *120:C 9.25014e-06
14 *25:8 *128:B2 0
15 *25:8 *49:23 0.000295844
*RES
1 *120:Y *25:8 17.8714 
2 *25:8 *128:A3 20.3 
3 *25:8 *145:A 15.5857 
*END

*D_NET *26 0.00118133
*CONN
*I *124:A2 I *D sky130_fd_sc_hd__a221o_1
*I *126:A I *D sky130_fd_sc_hd__or2_1
*I *121:X O *D sky130_fd_sc_hd__and2b_1
*CAP
1 *124:A2 5.35597e-05
2 *126:A 0.00010611
3 *121:X 0.000235471
4 *26:18 0.000395141
5 *124:A2 *124:A1 1.46576e-05
6 *124:A2 *45:10 5.28442e-06
7 *124:A2 *46:18 1.55638e-05
8 *126:A *127:B1 7.85137e-05
9 *26:18 *121:B 0.00012401
10 *26:18 *124:C1 0
11 *26:18 *125:A_N 0
12 *26:18 *128:A1 0
13 *128:A3 *126:A 9.97164e-05
14 *145:A *126:A 5.33005e-05
*RES
1 *121:X *26:18 18.3625 
2 *26:18 *126:A 16.1304 
3 *26:18 *124:A2 14.7598 
*END

*D_NET *27 0.00116197
*CONN
*I *157:A I *D sky130_fd_sc_hd__buf_1
*I *123:Y O *D sky130_fd_sc_hd__nor3_1
*CAP
1 *157:A 0.000374344
2 *123:Y 0.000374344
3 *157:A *120:A 0.000156586
4 *157:A *129:A 9.93955e-05
5 *157:A *131:C 7.43578e-06
6 *157:A *48:49 8.25843e-06
7 *157:A *50:18 5.10822e-05
8 *157:A *50:20 7.49251e-05
9 *120:D *157:A 1.56e-05
*RES
1 *123:Y *157:A 34.4393 
*END

*D_NET *28 0.00204774
*CONN
*I *134:A1 I *D sky130_fd_sc_hd__a21o_1
*I *126:B I *D sky130_fd_sc_hd__or2_1
*I *125:X O *D sky130_fd_sc_hd__and2b_1
*CAP
1 *134:A1 0.000168825
2 *126:B 0.000227139
3 *125:X 0.000250775
4 *28:10 0.00064674
5 *126:B *124:C1 0.000444673
6 *126:B *128:B2 1.56e-05
7 *134:A1 *128:B2 0
8 *134:A1 *133:A3 0
9 *134:A1 *134:A2 1.02504e-05
10 *134:A1 *134:B1 5.80706e-06
11 *28:10 *128:A2 0
12 *28:10 *128:B2 0
13 *28:10 *133:A3 0
14 *28:10 *147:A 7.83659e-05
15 *28:10 *33:8 9.80173e-05
16 *28:10 *33:30 0
17 *28:10 *44:18 0.000101545
*RES
1 *125:X *28:10 18.5143 
2 *28:10 *126:B 18.4429 
3 *28:10 *134:A1 16.9607 
*END

*D_NET *29 0.00073289
*CONN
*I *127:B1 I *D sky130_fd_sc_hd__a22o_1
*I *126:X O *D sky130_fd_sc_hd__or2_1
*CAP
1 *127:B1 0.000224441
2 *126:X 0.000224441
3 *127:B1 *124:A1 0.000147113
4 *127:B1 *127:A1 3.99614e-06
5 *127:B1 *127:A2 1.92905e-05
6 *127:B1 *45:10 2.16394e-05
7 *127:B1 *46:18 1.34548e-05
8 *126:A *127:B1 7.85137e-05
*RES
1 *126:X *127:B1 31.2429 
*END

*D_NET *30 0.000345561
*CONN
*I *134:A2 I *D sky130_fd_sc_hd__a21o_1
*I *131:X O *D sky130_fd_sc_hd__and4_1
*CAP
1 *134:A2 0.000119239
2 *131:X 0.000119239
3 *134:A2 *134:B1 4.16021e-05
4 *131:B *134:A2 5.52302e-05
5 *134:A1 *134:A2 1.02504e-05
*RES
1 *131:X *134:A2 29.7786 
*END

*D_NET *31 0.00121764
*CONN
*I *133:A3 I *D sky130_fd_sc_hd__a31o_1
*I *132:X O *D sky130_fd_sc_hd__xor2_1
*CAP
1 *133:A3 0.000464276
2 *132:X 0.000464276
3 *133:A3 *122:A_N 0.000174805
4 *133:A3 *122:C 7.50697e-05
5 *133:A3 *132:A 0
6 *133:A3 *38:10 0
7 *122:B *133:A3 3.92169e-05
8 *134:A1 *133:A3 0
9 *28:10 *133:A3 0
*RES
1 *132:X *133:A3 36.7786 
*END

*D_NET *32 0.000439026
*CONN
*I *134:B1 I *D sky130_fd_sc_hd__a21o_1
*I *133:X O *D sky130_fd_sc_hd__a31o_1
*CAP
1 *134:B1 0.000123885
2 *133:X 0.000123885
3 *134:B1 *122:A_N 4.48113e-05
4 *131:B *134:B1 4.18895e-05
5 *134:A1 *134:B1 5.80706e-06
6 *134:A2 *134:B1 4.16021e-05
7 *22:12 *134:B1 5.71472e-05
*RES
1 *133:X *134:B1 30.1893 
*END

*D_NET *33 0.003307
*CONN
*I *132:A I *D sky130_fd_sc_hd__xor2_1
*I *128:A2 I *D sky130_fd_sc_hd__a32o_1
*I *124:B2 I *D sky130_fd_sc_hd__a221o_1
*I *121:A_N I *D sky130_fd_sc_hd__and2b_1
*I *125:B I *D sky130_fd_sc_hd__and2b_1
*I *137:X O *D sky130_fd_sc_hd__buf_1
*CAP
1 *132:A 0.000186507
2 *128:A2 2.67555e-05
3 *124:B2 9.30204e-05
4 *121:A_N 0.000112313
5 *125:B 0
6 *137:X 0
7 *33:30 0.00020636
8 *33:17 0.000244767
9 *33:8 0.0003252
10 *33:4 0.000465836
11 *121:A_N *125:A_N 0.00010941
12 *121:A_N *147:A 0
13 *124:B2 *128:B1 7.48339e-05
14 *124:B2 *44:18 5.33005e-05
15 *124:B2 *44:44 0.000241094
16 *124:B2 *46:18 1.97695e-05
17 *128:A2 *128:A1 5.83304e-05
18 *132:A *132:B 6.74911e-05
19 *132:A *44:18 0
20 *33:8 *44:18 0.00010096
21 *33:30 *125:A_N 0.000101545
22 *33:30 *128:A1 2.24646e-05
23 *128:A3 *124:B2 2.48933e-05
24 *133:A3 *132:A 0
25 *138:A *121:A_N 0.000227532
26 *138:A *33:8 0.000360894
27 *138:A *33:17 8.57023e-05
28 *28:10 *128:A2 0
29 *28:10 *33:8 9.80173e-05
30 *28:10 *33:30 0
*RES
1 *137:X *33:4 9.3 
2 *33:4 *33:8 6.30357 
3 *33:8 *125:B 9.3 
4 *33:8 *33:17 5.44643 
5 *33:17 *121:A_N 16.7107 
6 *33:17 *33:30 1.64286 
7 *33:30 *124:B2 17.2509 
8 *33:30 *128:A2 14.5321 
9 *33:4 *132:A 21.6036 
*END

*D_NET *34 0.000461161
*CONN
*I *146:A I *D sky130_fd_sc_hd__buf_2
*I *127:X O *D sky130_fd_sc_hd__a22o_1
*CAP
1 *146:A 0.000160676
2 *127:X 0.000160676
3 *146:A *127:A1 5.49544e-05
4 *146:A *156:A 5.35423e-05
5 ALUControl[1] *146:A 3.13116e-05
*RES
1 *127:X *146:A 30.4929 
*END

*D_NET *35 0.00043238
*CONN
*I *147:A I *D sky130_fd_sc_hd__buf_2
*I *128:X O *D sky130_fd_sc_hd__a32o_1
*CAP
1 *147:A 0.000149392
2 *128:X 0.000149392
3 *147:A *44:18 5.52302e-05
4 *121:A_N *147:A 0
5 *28:10 *147:A 7.83659e-05
*RES
1 *128:X *147:A 30.0821 
*END

*D_NET *36 0.000415599
*CONN
*I *148:A I *D sky130_fd_sc_hd__buf_2
*I *129:X O *D sky130_fd_sc_hd__and2_1
*CAP
1 *148:A 0.000166333
2 *129:X 0.000166333
3 *148:A *129:A 4.16876e-06
4 *148:A *46:10 4.53274e-05
5 *120:D *148:A 3.34366e-05
*RES
1 *129:X *148:A 30.3143 
*END

*D_NET *37 0.00100565
*CONN
*I *149:A I *D sky130_fd_sc_hd__buf_2
*I *118:Y O *D sky130_fd_sc_hd__nand2_1
*CAP
1 *149:A 0.000308412
2 *118:Y 0.000308412
3 *149:A *154:A 0.000125304
4 *149:A *155:A 5.71472e-05
5 RegWrite *149:A 2.11419e-05
6 *23:12 *149:A 3.63281e-05
7 *24:17 *149:A 0.000148903
*RES
1 *118:Y *149:A 33.5821 
*END

*D_NET *38 0.00206963
*CONN
*I *124:C1 I *D sky130_fd_sc_hd__a221o_1
*I *150:A I *D sky130_fd_sc_hd__buf_2
*I *122:X O *D sky130_fd_sc_hd__and3b_1
*CAP
1 *124:C1 0.000521304
2 *150:A 5.92025e-05
3 *122:X 0.000110607
4 *38:10 0.000691113
5 *124:C1 *128:B2 0.000196589
6 *122:B *38:10 5.80706e-06
7 *126:B *124:C1 0.000444673
8 *128:A3 *124:C1 4.03318e-05
9 *133:A3 *38:10 0
10 *26:18 *124:C1 0
*RES
1 *122:X *38:10 20.2464 
2 *38:10 *150:A 10.2464 
3 *38:10 *124:C1 29.3 
*END

*D_NET *39 0.000563144
*CONN
*I *151:A I *D sky130_fd_sc_hd__buf_2
*I *133:B1 I *D sky130_fd_sc_hd__a31o_1
*I *130:X O *D sky130_fd_sc_hd__and3b_1
*CAP
1 *151:A 0.000113301
2 *133:B1 0.000142369
3 *130:X 0
4 *39:4 0.000255669
5 *133:B1 *122:C 2.8266e-06
6 *133:B1 *47:18 4.29272e-05
7 *122:B *133:B1 6.05161e-06
*RES
1 *130:X *39:4 9.3 
2 *39:4 *133:B1 20.8893 
3 *39:4 *151:A 11.2821 
*END

*D_NET *40 0.000636471
*CONN
*I *152:A I *D sky130_fd_sc_hd__buf_2
*I *116:X O *D sky130_fd_sc_hd__and3b_1
*CAP
1 *152:A 0.000182629
2 *116:X 0.000182629
3 *152:A *135:A 0.000126439
4 *152:A *48:8 0
5 *152:A *51:21 0
6 *152:A *53:6 0.000144773
7 *142:A *152:A 0
*RES
1 *116:X *152:A 30.9036 
*END

*D_NET *41 0.00092901
*CONN
*I *153:A I *D sky130_fd_sc_hd__buf_2
*I *134:X O *D sky130_fd_sc_hd__a21o_1
*CAP
1 *153:A 0.000437855
2 *134:X 0.000437855
3 *153:A *122:C 5.33005e-05
4 PCSrc *153:A 0
5 *122:B *153:A 0
*RES
1 *134:X *153:A 33.0643 
*END

*D_NET *42 0.000340617
*CONN
*I *154:A I *D sky130_fd_sc_hd__buf_2
*I *119:Y O *D sky130_fd_sc_hd__o21ai_1
*CAP
1 *154:A 0.000107657
2 *119:Y 0.000107657
3 *149:A *154:A 0.000125304
*RES
1 *119:Y *154:A 29.5464 
*END

*D_NET *43 0.000524935
*CONN
*I *155:A I *D sky130_fd_sc_hd__buf_2
*I *115:Y O *D sky130_fd_sc_hd__nor2_1
*CAP
1 *155:A 0.000156375
2 *115:Y 0.000156375
3 *115:B *155:A 5.49489e-05
4 *118:B *155:A 5.52238e-05
5 *140:A *155:A 4.48647e-05
6 *149:A *155:A 5.71472e-05
*RES
1 *115:Y *155:A 21.6179 
*END

*D_NET *44 0.00382233
*CONN
*I *127:A1 I *D sky130_fd_sc_hd__a22o_1
*I *121:B I *D sky130_fd_sc_hd__and2b_1
*I *128:A1 I *D sky130_fd_sc_hd__a32o_1
*I *125:A_N I *D sky130_fd_sc_hd__and2b_1
*I *138:X O *D sky130_fd_sc_hd__buf_1
*CAP
1 *127:A1 0.000281315
2 *121:B 0.000104743
3 *128:A1 3.29215e-05
4 *125:A_N 0.000123546
5 *138:X 0.00036488
6 *44:44 0.000576797
7 *44:20 0.000156468
8 *44:18 0.000555619
9 *127:A1 *127:A2 0.000196623
10 *127:A1 *128:B1 1.21258e-05
11 *127:A1 *156:A 9.78745e-05
12 *127:A1 *46:18 0.00027218
13 *128:A1 *128:B2 4.1331e-06
14 *44:44 *128:B1 7.33893e-06
15 ALUControl[2] *125:A_N 4.46186e-06
16 *121:A_N *125:A_N 0.00010941
17 *124:B2 *44:18 5.33005e-05
18 *124:B2 *44:44 0.000241094
19 *127:B1 *127:A1 3.99614e-06
20 *128:A2 *128:A1 5.83304e-05
21 *128:A3 *44:18 4.45768e-06
22 *132:A *44:18 0
23 *146:A *127:A1 5.49544e-05
24 *147:A *44:18 5.52302e-05
25 *26:18 *121:B 0.00012401
26 *26:18 *125:A_N 0
27 *26:18 *128:A1 0
28 *28:10 *44:18 0.000101545
29 *33:8 *44:18 0.00010096
30 *33:30 *125:A_N 0.000101545
31 *33:30 *128:A1 2.24646e-05
*RES
1 *138:X *44:18 24.1393 
2 *44:18 *44:20 4.5 
3 *44:20 *125:A_N 16.5857 
4 *44:20 *128:A1 14.8357 
5 *44:18 *44:44 3.01786 
6 *44:44 *121:B 20.4786 
7 *44:44 *127:A1 15.925 
*END

*D_NET *45 0.000707431
*CONN
*I *124:A1 I *D sky130_fd_sc_hd__a221o_1
*I *127:B2 I *D sky130_fd_sc_hd__a22o_1
*I *145:X O *D sky130_fd_sc_hd__clkbuf_1
*CAP
1 *124:A1 7.52386e-05
2 *127:B2 0
3 *145:X 7.72898e-05
4 *45:10 0.000152528
5 *124:A1 *46:18 9.09154e-05
6 *45:10 *46:14 0.000122765
7 *124:A2 *124:A1 1.46576e-05
8 *124:A2 *45:10 5.28442e-06
9 *127:B1 *124:A1 0.000147113
10 *127:B1 *45:10 2.16394e-05
*RES
1 *145:X *45:10 19.9429 
2 *45:10 *127:B2 9.3 
3 *45:10 *124:A1 11.4964 
*END

*D_NET *46 0.00264977
*CONN
*I *129:B I *D sky130_fd_sc_hd__and2_1
*I *127:A2 I *D sky130_fd_sc_hd__a22o_1
*I *128:B1 I *D sky130_fd_sc_hd__a32o_1
*I *124:B1 I *D sky130_fd_sc_hd__a221o_1
*I *157:X O *D sky130_fd_sc_hd__buf_1
*CAP
1 *129:B 3.72704e-05
2 *127:A2 4.56352e-05
3 *128:B1 7.41555e-05
4 *124:B1 0
5 *157:X 0.000131343
6 *46:18 0.000148845
7 *46:14 0.000421717
8 *46:10 0.000470005
9 *46:10 *129:A 0.000117213
10 *46:14 *129:A 1.00332e-05
11 ALUControl[3] *46:10 0
12 *120:D *46:10 5.52302e-05
13 *124:A1 *46:18 9.09154e-05
14 *124:A2 *46:18 1.55638e-05
15 *124:B2 *128:B1 7.48339e-05
16 *124:B2 *46:18 1.97695e-05
17 *127:A1 *127:A2 0.000196623
18 *127:A1 *128:B1 1.21258e-05
19 *127:A1 *46:18 0.00027218
20 *127:B1 *127:A2 1.92905e-05
21 *127:B1 *46:18 1.34548e-05
22 *128:A3 *128:B1 0.000248137
23 *139:A *46:14 0
24 *148:A *46:10 4.53274e-05
25 *44:44 *128:B1 7.33893e-06
26 *45:10 *46:14 0.000122765
*RES
1 *157:X *46:10 16.3893 
2 *46:10 *46:14 9.78571 
3 *46:14 *46:18 3.01786 
4 *46:18 *124:B1 9.3 
5 *46:18 *128:B1 12.1125 
6 *46:14 *127:A2 11.0857 
7 *46:10 *129:B 14.3357 
*END

*D_NET *47 0.00454406
*CONN
*I *119:A1 I *D sky130_fd_sc_hd__o21ai_1
*I *114:A I *D sky130_fd_sc_hd__or2_1
*I *116:A_N I *D sky130_fd_sc_hd__and3b_1
*I *130:C I *D sky130_fd_sc_hd__and3b_1
*I *133:A1 I *D sky130_fd_sc_hd__a31o_1
*I *122:C I *D sky130_fd_sc_hd__and3b_1
*I *135:X O *D sky130_fd_sc_hd__buf_1
*CAP
1 *119:A1 0.000119718
2 *114:A 0
3 *116:A_N 4.40688e-05
4 *130:C 0
5 *133:A1 0
6 *122:C 9.90298e-05
7 *135:X 0.000140763
8 *47:70 0.000503384
9 *47:45 0.000427735
10 *47:18 0.000236301
11 *47:12 0.000214674
12 *47:10 0.000218166
13 *116:A_N *53:6 5.33334e-05
14 *119:A1 *119:A2 2.23592e-05
15 *122:C *122:A_N 1.00375e-05
16 *47:10 *48:8 2.1527e-05
17 *47:10 *48:10 2.88517e-05
18 *47:10 *51:8 1.40306e-05
19 *47:12 *48:10 4.57445e-05
20 *47:18 *122:A_N 4.1331e-06
21 *47:18 *48:10 1.00375e-05
22 *47:18 *48:12 5.34275e-05
23 *47:18 *48:18 4.5223e-05
24 *47:70 *116:C 0.000185643
25 *47:70 *117:A_N 0.000130419
26 *47:70 *117:B 1.28809e-05
27 *47:70 *119:A2 5.32955e-05
28 *47:70 *48:10 6.2589e-06
29 *47:70 *52:30 0.000354098
30 *47:70 *53:6 0.000143566
31 *114:B *47:70 0.000691922
32 *122:B *122:C 0.00012401
33 *133:A3 *122:C 7.50697e-05
34 *133:B1 *122:C 2.8266e-06
35 *133:B1 *47:18 4.29272e-05
36 *143:A *47:12 0
37 *153:A *122:C 5.33005e-05
38 *23:12 *119:A1 2.89114e-05
39 *24:6 *119:A1 0.000142152
40 *24:6 *47:70 0.000143375
41 *24:17 *119:A1 4.08637e-05
*RES
1 *135:X *47:10 16.2821 
2 *47:10 *47:12 1.64286 
3 *47:12 *47:18 3.82143 
4 *47:18 *122:C 16.5857 
5 *47:18 *133:A1 13.8 
6 *47:12 *130:C 13.8 
7 *47:10 *47:45 4.5 
8 *47:45 *116:A_N 10.2464 
9 *47:45 *47:70 21.1607 
10 *47:70 *114:A 9.3 
11 *47:70 *119:A1 11.8893 
*END

*D_NET *48 0.0046006
*CONN
*I *116:B I *D sky130_fd_sc_hd__and3b_1
*I *115:A I *D sky130_fd_sc_hd__nor2_1
*I *117:B I *D sky130_fd_sc_hd__nand2b_1
*I *130:B I *D sky130_fd_sc_hd__and3b_1
*I *131:A I *D sky130_fd_sc_hd__and4_1
*I *122:A_N I *D sky130_fd_sc_hd__and3b_1
*I *136:X O *D sky130_fd_sc_hd__buf_1
*CAP
1 *116:B 3.92359e-05
2 *115:A 0.00012672
3 *117:B 0.000142214
4 *130:B 0.000123502
5 *131:A 0.000233985
6 *122:A_N 7.67455e-05
7 *136:X 5.52114e-05
8 *48:49 0.000642416
9 *48:18 0.000406252
10 *48:12 0.000250034
11 *48:10 0.00052534
12 *48:8 0.000215295
13 *115:A *50:18 1.40306e-05
14 *116:B *53:6 5.52238e-05
15 *117:B *119:A2 6.26774e-06
16 *117:B *52:12 0
17 *131:A *131:C 0.000144773
18 *131:A *131:D 2.44318e-05
19 *48:49 *120:A 4.58976e-05
20 *48:49 *123:C 5.52302e-05
21 *48:49 *130:A_N 0.000528324
22 *122:C *122:A_N 1.00375e-05
23 *131:B *131:A 0.000163199
24 *133:A3 *122:A_N 0.000174805
25 *134:B1 *122:A_N 4.48113e-05
26 *140:A *115:A 4.10796e-05
27 *152:A *48:8 0
28 *157:A *48:49 8.25843e-06
29 *22:10 *122:A_N 2.94103e-05
30 *22:10 *48:10 3.57163e-05
31 *22:10 *48:12 3.98131e-05
32 *22:10 *48:18 6.38816e-05
33 *22:12 *131:A 5.03772e-05
34 *23:12 *117:B 0
35 *47:10 *48:8 2.1527e-05
36 *47:10 *48:10 2.88517e-05
37 *47:12 *48:10 4.57445e-05
38 *47:18 *122:A_N 4.1331e-06
39 *47:18 *48:10 1.00375e-05
40 *47:18 *48:12 5.34275e-05
41 *47:18 *48:18 4.5223e-05
42 *47:70 *117:B 1.28809e-05
43 *47:70 *48:10 6.2589e-06
*RES
1 *136:X *48:8 14.8357 
2 *48:8 *48:10 2.85714 
3 *48:10 *48:12 1.33929 
4 *48:12 *48:18 2.30357 
5 *48:18 *122:A_N 16.3536 
6 *48:18 *131:A 19.2643 
7 *48:12 *130:B 15.1571 
8 *48:10 *48:49 11.6071 
9 *48:49 *117:B 20.3759 
10 *48:49 *115:A 11.4964 
11 *48:8 *116:B 14.3357 
*END

*D_NET *49 0.00279398
*CONN
*I *120:C I *D sky130_fd_sc_hd__nor4_1
*I *131:D I *D sky130_fd_sc_hd__and4_1
*I *128:B2 I *D sky130_fd_sc_hd__a32o_1
*I *139:X O *D sky130_fd_sc_hd__buf_1
*CAP
1 *120:C 5.5201e-05
2 *131:D 0.000200383
3 *128:B2 0.0002172
4 *139:X 0.00030111
5 *49:23 0.00040152
6 *49:6 0.000664247
7 *120:C *120:A 5.80706e-06
8 *120:C *129:A 0
9 *120:C *50:18 5.80706e-06
10 *131:D *131:C 0.000198687
11 *131:D *50:20 2.14658e-05
12 *120:D *120:C 0
13 *124:C1 *128:B2 0.000196589
14 *126:B *128:B2 1.56e-05
15 *128:A1 *128:B2 4.1331e-06
16 *128:A3 *128:B2 0
17 *131:A *131:D 2.44318e-05
18 *131:B *131:D 0.00010096
19 *134:A1 *128:B2 0
20 *145:A *49:6 7.57394e-05
21 *25:8 *120:C 9.25014e-06
22 *25:8 *128:B2 0
23 *25:8 *49:23 0.000295844
24 *28:10 *128:B2 0
*RES
1 *139:X *49:6 13.9429 
2 *49:6 *128:B2 22.5143 
3 *49:6 *49:23 8.26786 
4 *49:23 *131:D 17.7643 
5 *49:23 *120:C 14.8357 
*END

*D_NET *50 0.00183899
*CONN
*I *129:A I *D sky130_fd_sc_hd__and2_1
*I *120:B I *D sky130_fd_sc_hd__nor4_1
*I *131:C I *D sky130_fd_sc_hd__and4_1
*I *140:X O *D sky130_fd_sc_hd__clkbuf_1
*CAP
1 *129:A 0.000132688
2 *120:B 0
3 *131:C 5.94487e-05
4 *140:X 0.000197303
5 *50:20 0.000112846
6 *50:18 0.000383388
7 *50:18 *120:A 5.01876e-06
8 *115:A *50:18 1.40306e-05
9 *120:C *129:A 0
10 *120:C *50:18 5.80706e-06
11 *120:D *129:A 0.000186077
12 *120:D *50:20 1.32056e-05
13 *131:A *131:C 0.000144773
14 *131:D *131:C 0.000198687
15 *131:D *50:20 2.14658e-05
16 *148:A *129:A 4.16876e-06
17 *157:A *129:A 9.93955e-05
18 *157:A *131:C 7.43578e-06
19 *157:A *50:18 5.10822e-05
20 *157:A *50:20 7.49251e-05
21 *46:10 *129:A 0.000117213
22 *46:14 *129:A 1.00332e-05
*RES
1 *140:X *50:18 21.5679 
2 *50:18 *50:20 1.35714 
3 *50:20 *131:C 11.8893 
4 *50:20 *120:B 9.3 
5 *50:18 *129:A 22.3179 
*END

*D_NET *51 0.00374175
*CONN
*I *119:A2 I *D sky130_fd_sc_hd__o21ai_1
*I *123:B I *D sky130_fd_sc_hd__nor3_1
*I *136:A I *D sky130_fd_sc_hd__buf_1
*I *141:X O *D sky130_fd_sc_hd__buf_1
*CAP
1 *119:A2 0.000350578
2 *123:B 0.000139536
3 *136:A 2.23854e-05
4 *141:X 0.000262741
5 *51:21 0.000823197
6 *51:8 0.00061821
7 *119:A2 *117:A_N 7.77751e-05
8 *119:A2 *52:30 2.59355e-05
9 *123:B *120:A 5.52302e-05
10 *123:B *52:8 4.73656e-05
11 *123:B *52:12 0.000168939
12 *123:B *53:29 0.000238769
13 *136:A *135:A 0
14 *51:8 *135:A 0.000105163
15 *51:21 *135:A 6.57815e-05
16 *51:21 *52:8 0.000103267
17 MemWrite *51:21 0.000144773
18 *117:B *119:A2 6.26774e-06
19 *119:A1 *119:A2 2.23592e-05
20 *142:A *51:21 7.0528e-05
21 *152:A *51:21 0
22 *22:10 *123:B 0
23 *24:6 *119:A2 0.000272321
24 *24:17 *119:A2 5.33005e-05
25 *47:10 *51:8 1.40306e-05
26 *47:70 *119:A2 5.32955e-05
*RES
1 *141:X *51:8 13.9607 
2 *51:8 *136:A 9.72857 
3 *51:8 *51:21 11.2857 
4 *51:21 *123:B 17.8 
5 *51:21 *119:A2 20.4964 
*END

*D_NET *52 0.00330396
*CONN
*I *117:A_N I *D sky130_fd_sc_hd__nand2b_1
*I *113:A I *D sky130_fd_sc_hd__inv_2
*I *116:C I *D sky130_fd_sc_hd__and3b_1
*I *123:C I *D sky130_fd_sc_hd__nor3_1
*I *130:A_N I *D sky130_fd_sc_hd__and3b_1
*I *142:X O *D sky130_fd_sc_hd__buf_1
*CAP
1 *117:A_N 2.38199e-05
2 *113:A 0
3 *116:C 0.000119599
4 *123:C 8.21614e-06
5 *130:A_N 0.000179143
6 *142:X 8.25398e-05
7 *52:30 0.000213327
8 *52:28 0.000117548
9 *52:12 0.000296188
10 *52:8 0.000191369
11 *116:C *53:6 1.21289e-05
12 *123:C *120:A 4.38128e-05
13 *130:A_N *120:A 9.60939e-05
14 *52:30 *53:6 2.89016e-05
15 *52:30 *53:29 0.000142053
16 *114:B *116:C 5.52302e-05
17 *114:B *52:30 1.69961e-05
18 *117:B *52:12 0
19 *119:A2 *117:A_N 7.77751e-05
20 *119:A2 *52:30 2.59355e-05
21 *123:B *52:8 4.73656e-05
22 *123:B *52:12 0.000168939
23 *47:70 *116:C 0.000185643
24 *47:70 *117:A_N 0.000130419
25 *47:70 *52:30 0.000354098
26 *48:49 *123:C 5.52302e-05
27 *48:49 *130:A_N 0.000528324
28 *51:21 *52:8 0.000103267
*RES
1 *142:X *52:8 15.7464 
2 *52:8 *52:12 6.75 
3 *52:12 *130:A_N 14.3536 
4 *52:12 *123:C 9.83571 
5 *52:8 *52:28 4.5 
6 *52:28 *52:30 3.82143 
7 *52:30 *116:C 11.9071 
8 *52:30 *113:A 9.3 
9 *52:28 *117:A_N 10.6571 
*END

*D_NET *53 0.00341094
*CONN
*I *120:A I *D sky130_fd_sc_hd__nor4_1
*I *123:A I *D sky130_fd_sc_hd__nor3_1
*I *135:A I *D sky130_fd_sc_hd__buf_1
*I *143:X O *D sky130_fd_sc_hd__buf_1
*CAP
1 *120:A 0.00017167
2 *123:A 0
3 *135:A 0.000249316
4 *143:X 0.000247685
5 *53:29 0.000446179
6 *53:6 0.00077151
7 *116:A_N *53:6 5.33334e-05
8 *116:B *53:6 5.52238e-05
9 *116:C *53:6 1.21289e-05
10 *120:C *120:A 5.80706e-06
11 *123:B *120:A 5.52302e-05
12 *123:B *53:29 0.000238769
13 *123:C *120:A 4.38128e-05
14 *130:A_N *120:A 9.60939e-05
15 *136:A *135:A 0
16 *140:A *120:A 0
17 *152:A *135:A 0.000126439
18 *152:A *53:6 0.000144773
19 *157:A *120:A 0.000156586
20 *22:10 *53:29 0
21 *47:70 *53:6 0.000143566
22 *48:49 *120:A 4.58976e-05
23 *50:18 *120:A 5.01876e-06
24 *51:8 *135:A 0.000105163
25 *51:21 *135:A 6.57815e-05
26 *52:30 *53:6 2.89016e-05
27 *52:30 *53:29 0.000142053
*RES
1 *143:X *53:6 14.7643 
2 *53:6 *135:A 23.675 
3 *53:6 *53:29 14.75 
4 *53:29 *123:A 9.3 
5 *53:29 *120:A 22.7286 
*END

*D_NET *54 0.00031272
*CONN
*I *132:B I *D sky130_fd_sc_hd__xor2_1
*I *144:X O *D sky130_fd_sc_hd__clkbuf_1
*CAP
1 *132:B 0.000103987
2 *144:X 0.000103987
3 *132:A *132:B 6.74911e-05
4 *137:A *132:B 1.72894e-05
5 *144:A *132:B 1.99644e-05
*RES
1 *144:X *132:B 29.7786 
*END

*D_NET *55 0.000554312
*CONN
*I *156:A I *D sky130_fd_sc_hd__buf_2
*I *124:X O *D sky130_fd_sc_hd__a221o_1
*CAP
1 *156:A 0.000201448
2 *124:X 0.000201448
3 *127:A1 *156:A 9.78745e-05
4 *138:A *156:A 0
5 *146:A *156:A 5.35423e-05
*RES
1 *124:X *156:A 31.0286 
*END
