* NGSPICE file created from ALU.ext - technology: sky130A

* Black-box entry subcircuit for sky130_fd_sc_hd__tapvpwrvgnd_1 abstract view
.subckt sky130_fd_sc_hd__tapvpwrvgnd_1 VGND VPWR
.ends

* Black-box entry subcircuit for sky130_fd_sc_hd__decap_6 abstract view
.subckt sky130_fd_sc_hd__decap_6 VGND VNB VPB VPWR
.ends

* Black-box entry subcircuit for sky130_fd_sc_hd__decap_8 abstract view
.subckt sky130_fd_sc_hd__decap_8 VGND VNB VPB VPWR
.ends

* Black-box entry subcircuit for sky130_ef_sc_hd__decap_12 abstract view
.subckt sky130_ef_sc_hd__decap_12 VPWR VGND VPB VNB
.ends

* Black-box entry subcircuit for sky130_fd_sc_hd__mux4_1 abstract view
.subckt sky130_fd_sc_hd__mux4_1 A0 A1 A2 A3 S0 S1 VGND VNB VPB VPWR X
.ends

* Black-box entry subcircuit for sky130_fd_sc_hd__a221o_1 abstract view
.subckt sky130_fd_sc_hd__a221o_1 A1 A2 B1 B2 C1 VGND VNB VPB VPWR X
.ends

* Black-box entry subcircuit for sky130_fd_sc_hd__buf_2 abstract view
.subckt sky130_fd_sc_hd__buf_2 A VGND VNB VPB VPWR X
.ends

* Black-box entry subcircuit for sky130_fd_sc_hd__decap_3 abstract view
.subckt sky130_fd_sc_hd__decap_3 VGND VNB VPB VPWR
.ends

* Black-box entry subcircuit for sky130_fd_sc_hd__decap_4 abstract view
.subckt sky130_fd_sc_hd__decap_4 VGND VNB VPB VPWR
.ends

* Black-box entry subcircuit for sky130_fd_sc_hd__a211o_1 abstract view
.subckt sky130_fd_sc_hd__a211o_1 A1 A2 B1 C1 VGND VNB VPB VPWR X
.ends

* Black-box entry subcircuit for sky130_fd_sc_hd__fill_2 abstract view
.subckt sky130_fd_sc_hd__fill_2 VGND VNB VPB VPWR
.ends

* Black-box entry subcircuit for sky130_fd_sc_hd__fill_1 abstract view
.subckt sky130_fd_sc_hd__fill_1 VGND VNB VPB VPWR
.ends

* Black-box entry subcircuit for sky130_fd_sc_hd__nand2_1 abstract view
.subckt sky130_fd_sc_hd__nand2_1 A B VGND VNB VPB VPWR Y
.ends

* Black-box entry subcircuit for sky130_fd_sc_hd__o41a_1 abstract view
.subckt sky130_fd_sc_hd__o41a_1 A1 A2 A3 A4 B1 VGND VNB VPB VPWR X
.ends

* Black-box entry subcircuit for sky130_fd_sc_hd__a21oi_1 abstract view
.subckt sky130_fd_sc_hd__a21oi_1 A1 A2 B1 VGND VNB VPB VPWR Y
.ends

* Black-box entry subcircuit for sky130_fd_sc_hd__o22a_1 abstract view
.subckt sky130_fd_sc_hd__o22a_1 A1 A2 B1 B2 VGND VNB VPB VPWR X
.ends

* Black-box entry subcircuit for sky130_fd_sc_hd__o311a_1 abstract view
.subckt sky130_fd_sc_hd__o311a_1 A1 A2 A3 B1 C1 VGND VNB VPB VPWR X
.ends

* Black-box entry subcircuit for sky130_fd_sc_hd__a22o_1 abstract view
.subckt sky130_fd_sc_hd__a22o_1 A1 A2 B1 B2 VGND VNB VPB VPWR X
.ends

* Black-box entry subcircuit for sky130_fd_sc_hd__and2_1 abstract view
.subckt sky130_fd_sc_hd__and2_1 A B VGND VNB VPB VPWR X
.ends

* Black-box entry subcircuit for sky130_fd_sc_hd__o31ai_1 abstract view
.subckt sky130_fd_sc_hd__o31ai_1 A1 A2 A3 B1 VGND VNB VPB VPWR Y
.ends

* Black-box entry subcircuit for sky130_fd_sc_hd__mux2_1 abstract view
.subckt sky130_fd_sc_hd__mux2_1 A0 A1 S VGND VNB VPB VPWR X
.ends

* Black-box entry subcircuit for sky130_fd_sc_hd__a21o_1 abstract view
.subckt sky130_fd_sc_hd__a21o_1 A1 A2 B1 VGND VNB VPB VPWR X
.ends

* Black-box entry subcircuit for sky130_fd_sc_hd__and3_1 abstract view
.subckt sky130_fd_sc_hd__and3_1 A B C VGND VNB VPB VPWR X
.ends

* Black-box entry subcircuit for sky130_fd_sc_hd__o211ai_1 abstract view
.subckt sky130_fd_sc_hd__o211ai_1 A1 A2 B1 C1 VGND VNB VPB VPWR Y
.ends

* Black-box entry subcircuit for sky130_fd_sc_hd__a311o_1 abstract view
.subckt sky130_fd_sc_hd__a311o_1 A1 A2 A3 B1 C1 VGND VNB VPB VPWR X
.ends

* Black-box entry subcircuit for sky130_fd_sc_hd__nor2_4 abstract view
.subckt sky130_fd_sc_hd__nor2_4 A B VGND VNB VPB VPWR Y
.ends

* Black-box entry subcircuit for sky130_fd_sc_hd__or2_1 abstract view
.subckt sky130_fd_sc_hd__or2_1 A B VGND VNB VPB VPWR X
.ends

* Black-box entry subcircuit for sky130_fd_sc_hd__o21ai_1 abstract view
.subckt sky130_fd_sc_hd__o21ai_1 A1 A2 B1 VGND VNB VPB VPWR Y
.ends

* Black-box entry subcircuit for sky130_fd_sc_hd__o21a_1 abstract view
.subckt sky130_fd_sc_hd__o21a_1 A1 A2 B1 VGND VNB VPB VPWR X
.ends

* Black-box entry subcircuit for sky130_fd_sc_hd__or4b_4 abstract view
.subckt sky130_fd_sc_hd__or4b_4 A B C D_N VGND VNB VPB VPWR X
.ends

* Black-box entry subcircuit for sky130_fd_sc_hd__or3_1 abstract view
.subckt sky130_fd_sc_hd__or3_1 A B C VGND VNB VPB VPWR X
.ends

* Black-box entry subcircuit for sky130_fd_sc_hd__xnor2_1 abstract view
.subckt sky130_fd_sc_hd__xnor2_1 A B VGND VNB VPB VPWR Y
.ends

* Black-box entry subcircuit for sky130_fd_sc_hd__nor4b_2 abstract view
.subckt sky130_fd_sc_hd__nor4b_2 A B C D_N VGND VNB VPB VPWR Y
.ends

* Black-box entry subcircuit for sky130_fd_sc_hd__buf_1 abstract view
.subckt sky130_fd_sc_hd__buf_1 A VGND VNB VPB VPWR X
.ends

* Black-box entry subcircuit for sky130_fd_sc_hd__clkbuf_2 abstract view
.subckt sky130_fd_sc_hd__clkbuf_2 A VGND VNB VPB VPWR X
.ends

* Black-box entry subcircuit for sky130_fd_sc_hd__and3_2 abstract view
.subckt sky130_fd_sc_hd__and3_2 A B C VGND VNB VPB VPWR X
.ends

* Black-box entry subcircuit for sky130_fd_sc_hd__nor2_1 abstract view
.subckt sky130_fd_sc_hd__nor2_1 A B VGND VNB VPB VPWR Y
.ends

* Black-box entry subcircuit for sky130_fd_sc_hd__a31o_1 abstract view
.subckt sky130_fd_sc_hd__a31o_1 A1 A2 A3 B1 VGND VNB VPB VPWR X
.ends

* Black-box entry subcircuit for sky130_fd_sc_hd__nor3_1 abstract view
.subckt sky130_fd_sc_hd__nor3_1 A B C VGND VNB VPB VPWR Y
.ends

* Black-box entry subcircuit for sky130_fd_sc_hd__o211ai_2 abstract view
.subckt sky130_fd_sc_hd__o211ai_2 A1 A2 B1 C1 VGND VNB VPB VPWR Y
.ends

* Black-box entry subcircuit for sky130_fd_sc_hd__clkbuf_4 abstract view
.subckt sky130_fd_sc_hd__clkbuf_4 A VGND VNB VPB VPWR X
.ends

* Black-box entry subcircuit for sky130_fd_sc_hd__xor2_1 abstract view
.subckt sky130_fd_sc_hd__xor2_1 A B VGND VNB VPB VPWR X
.ends

* Black-box entry subcircuit for sky130_fd_sc_hd__and3b_1 abstract view
.subckt sky130_fd_sc_hd__and3b_1 A_N B C VGND VNB VPB VPWR X
.ends

* Black-box entry subcircuit for sky130_fd_sc_hd__o31a_1 abstract view
.subckt sky130_fd_sc_hd__o31a_1 A1 A2 A3 B1 VGND VNB VPB VPWR X
.ends

* Black-box entry subcircuit for sky130_fd_sc_hd__and2b_1 abstract view
.subckt sky130_fd_sc_hd__and2b_1 A_N B VGND VNB VPB VPWR X
.ends

* Black-box entry subcircuit for sky130_fd_sc_hd__inv_2 abstract view
.subckt sky130_fd_sc_hd__inv_2 A VGND VNB VPB VPWR Y
.ends

* Black-box entry subcircuit for sky130_fd_sc_hd__and4b_1 abstract view
.subckt sky130_fd_sc_hd__and4b_1 A_N B C D VGND VNB VPB VPWR X
.ends

* Black-box entry subcircuit for sky130_fd_sc_hd__o211a_1 abstract view
.subckt sky130_fd_sc_hd__o211a_1 A1 A2 B1 C1 VGND VNB VPB VPWR X
.ends

* Black-box entry subcircuit for sky130_fd_sc_hd__or4_2 abstract view
.subckt sky130_fd_sc_hd__or4_2 A B C D VGND VNB VPB VPWR X
.ends

* Black-box entry subcircuit for sky130_fd_sc_hd__or3b_1 abstract view
.subckt sky130_fd_sc_hd__or3b_1 A B C_N VGND VNB VPB VPWR X
.ends

* Black-box entry subcircuit for sky130_fd_sc_hd__nor4b_1 abstract view
.subckt sky130_fd_sc_hd__nor4b_1 A B C D_N VGND VNB VPB VPWR Y
.ends

* Black-box entry subcircuit for sky130_fd_sc_hd__nand2b_1 abstract view
.subckt sky130_fd_sc_hd__nand2b_1 A_N B VGND VNB VPB VPWR Y
.ends

* Black-box entry subcircuit for sky130_fd_sc_hd__xor2_2 abstract view
.subckt sky130_fd_sc_hd__xor2_2 A B VGND VNB VPB VPWR X
.ends

* Black-box entry subcircuit for sky130_fd_sc_hd__and4bb_1 abstract view
.subckt sky130_fd_sc_hd__and4bb_1 A_N B_N C D VGND VNB VPB VPWR X
.ends

* Black-box entry subcircuit for sky130_fd_sc_hd__nand3b_1 abstract view
.subckt sky130_fd_sc_hd__nand3b_1 A_N B C VGND VNB VPB VPWR Y
.ends

* Black-box entry subcircuit for sky130_fd_sc_hd__or4_1 abstract view
.subckt sky130_fd_sc_hd__or4_1 A B C D VGND VNB VPB VPWR X
.ends

* Black-box entry subcircuit for sky130_fd_sc_hd__nand3_1 abstract view
.subckt sky130_fd_sc_hd__nand3_1 A B C VGND VNB VPB VPWR Y
.ends

* Black-box entry subcircuit for sky130_fd_sc_hd__or4b_1 abstract view
.subckt sky130_fd_sc_hd__or4b_1 A B C D_N VGND VNB VPB VPWR X
.ends

* Black-box entry subcircuit for sky130_fd_sc_hd__dlymetal6s2s_1 abstract view
.subckt sky130_fd_sc_hd__dlymetal6s2s_1 A VGND VNB VPB VPWR X
.ends

* Black-box entry subcircuit for sky130_fd_sc_hd__clkbuf_1 abstract view
.subckt sky130_fd_sc_hd__clkbuf_1 A VGND VNB VPB VPWR X
.ends

* Black-box entry subcircuit for sky130_fd_sc_hd__and2_2 abstract view
.subckt sky130_fd_sc_hd__and2_2 A B VGND VNB VPB VPWR X
.ends

* Black-box entry subcircuit for sky130_fd_sc_hd__a21boi_1 abstract view
.subckt sky130_fd_sc_hd__a21boi_1 A1 A2 B1_N VGND VNB VPB VPWR Y
.ends

* Black-box entry subcircuit for sky130_fd_sc_hd__a21bo_1 abstract view
.subckt sky130_fd_sc_hd__a21bo_1 A1 A2 B1_N VGND VNB VPB VPWR X
.ends

* Black-box entry subcircuit for sky130_fd_sc_hd__or2_2 abstract view
.subckt sky130_fd_sc_hd__or2_2 A B VGND VNB VPB VPWR X
.ends

* Black-box entry subcircuit for sky130_fd_sc_hd__nor2_2 abstract view
.subckt sky130_fd_sc_hd__nor2_2 A B VGND VNB VPB VPWR Y
.ends

* Black-box entry subcircuit for sky130_fd_sc_hd__or3_2 abstract view
.subckt sky130_fd_sc_hd__or3_2 A B C VGND VNB VPB VPWR X
.ends

* Black-box entry subcircuit for sky130_fd_sc_hd__nand2_2 abstract view
.subckt sky130_fd_sc_hd__nand2_2 A B VGND VNB VPB VPWR Y
.ends

* Black-box entry subcircuit for sky130_fd_sc_hd__a2bb2o_1 abstract view
.subckt sky130_fd_sc_hd__a2bb2o_1 A1_N A2_N B1 B2 VGND VNB VPB VPWR X
.ends

* Black-box entry subcircuit for sky130_fd_sc_hd__and4_1 abstract view
.subckt sky130_fd_sc_hd__and4_1 A B C D VGND VNB VPB VPWR X
.ends

* Black-box entry subcircuit for sky130_fd_sc_hd__a211oi_1 abstract view
.subckt sky130_fd_sc_hd__a211oi_1 A1 A2 B1 C1 VGND VNB VPB VPWR Y
.ends

* Black-box entry subcircuit for sky130_fd_sc_hd__or3b_4 abstract view
.subckt sky130_fd_sc_hd__or3b_4 A B C_N VGND VNB VPB VPWR X
.ends

* Black-box entry subcircuit for sky130_fd_sc_hd__o21ba_1 abstract view
.subckt sky130_fd_sc_hd__o21ba_1 A1 A2 B1_N VGND VNB VPB VPWR X
.ends

* Black-box entry subcircuit for sky130_fd_sc_hd__nor3b_1 abstract view
.subckt sky130_fd_sc_hd__nor3b_1 A B C_N VGND VNB VPB VPWR Y
.ends

* Black-box entry subcircuit for sky130_fd_sc_hd__a32o_1 abstract view
.subckt sky130_fd_sc_hd__a32o_1 A1 A2 A3 B1 B2 VGND VNB VPB VPWR X
.ends

* Black-box entry subcircuit for sky130_fd_sc_hd__a211oi_2 abstract view
.subckt sky130_fd_sc_hd__a211oi_2 A1 A2 B1 C1 VGND VNB VPB VPWR Y
.ends

* Black-box entry subcircuit for sky130_fd_sc_hd__a31oi_1 abstract view
.subckt sky130_fd_sc_hd__a31oi_1 A1 A2 A3 B1 VGND VNB VPB VPWR Y
.ends

* Black-box entry subcircuit for sky130_fd_sc_hd__nand3b_2 abstract view
.subckt sky130_fd_sc_hd__nand3b_2 A_N B C VGND VNB VPB VPWR Y
.ends

* Black-box entry subcircuit for sky130_fd_sc_hd__and3b_2 abstract view
.subckt sky130_fd_sc_hd__and3b_2 A_N B C VGND VNB VPB VPWR X
.ends

* Black-box entry subcircuit for sky130_fd_sc_hd__or4_4 abstract view
.subckt sky130_fd_sc_hd__or4_4 A B C D VGND VNB VPB VPWR X
.ends

* Black-box entry subcircuit for sky130_fd_sc_hd__or3_4 abstract view
.subckt sky130_fd_sc_hd__or3_4 A B C VGND VNB VPB VPWR X
.ends

* Black-box entry subcircuit for sky130_fd_sc_hd__o221a_1 abstract view
.subckt sky130_fd_sc_hd__o221a_1 A1 A2 B1 B2 C1 VGND VNB VPB VPWR X
.ends

* Black-box entry subcircuit for sky130_fd_sc_hd__and2b_2 abstract view
.subckt sky130_fd_sc_hd__and2b_2 A_N B VGND VNB VPB VPWR X
.ends

.subckt ALU ALU_control[0] ALU_control[1] ALU_control[2] ALU_control[3] ALU_result[0]
+ ALU_result[10] ALU_result[11] ALU_result[12] ALU_result[13] ALU_result[14] ALU_result[15]
+ ALU_result[1] ALU_result[2] ALU_result[3] ALU_result[4] ALU_result[5] ALU_result[6]
+ ALU_result[7] ALU_result[8] ALU_result[9] SrcA[0] SrcA[10] SrcA[11] SrcA[12] SrcA[13]
+ SrcA[14] SrcA[15] SrcA[1] SrcA[2] SrcA[3] SrcA[4] SrcA[5] SrcA[6] SrcA[7] SrcA[8]
+ SrcA[9] SrcB[0] SrcB[10] SrcB[11] SrcB[12] SrcB[13] SrcB[14] SrcB[15] SrcB[1] SrcB[2]
+ SrcB[3] SrcB[4] SrcB[5] SrcB[6] SrcB[7] SrcB[8] SrcB[9] VGND VPWR zero
XTAP_TAPCELL_ROW_24_139 VGND VPWR sky130_fd_sc_hd__tapvpwrvgnd_1
XFILLER_22_133 VGND VGND VPWR VPWR sky130_fd_sc_hd__decap_6
XFILLER_22_111 VGND VGND VPWR VPWR sky130_fd_sc_hd__decap_6
XFILLER_7_7 VGND VGND VPWR VPWR sky130_fd_sc_hd__decap_8
XFILLER_26_85 VPWR VGND VPWR VGND sky130_ef_sc_hd__decap_12
X_432_ net87 net66 net64 net62 net84 net78 VGND VGND VPWR VPWR _010_ sky130_fd_sc_hd__mux4_1
XFILLER_13_133 VGND VGND VPWR VPWR sky130_fd_sc_hd__decap_6
X_501_ net67 _064_ _076_ _339_ _073_ VGND VGND VPWR VPWR _077_ sky130_fd_sc_hd__a221o_1
Xfanout105 net106 VGND VGND VPWR VPWR net105 sky130_fd_sc_hd__buf_2
XFILLER_12_76 VGND VGND VPWR VPWR sky130_fd_sc_hd__decap_3
XFILLER_12_10 VGND VGND VPWR VPWR sky130_fd_sc_hd__decap_3
XFILLER_10_125 VGND VGND VPWR VPWR sky130_fd_sc_hd__decap_4
X_415_ net5 _369_ _358_ _353_ VGND VGND VPWR VPWR net37 sky130_fd_sc_hd__a211o_1
XFILLER_5_151 VGND VGND VPWR VPWR sky130_fd_sc_hd__fill_2
XFILLER_0_79 VGND VGND VPWR VPWR sky130_fd_sc_hd__fill_1
XFILLER_0_57 VGND VGND VPWR VPWR sky130_fd_sc_hd__fill_2
XFILLER_9_55 VGND VGND VPWR VPWR sky130_fd_sc_hd__fill_1
X_680_ _171_ _174_ _213_ _246_ VGND VGND VPWR VPWR _247_ sky130_fd_sc_hd__a211o_1
XFILLER_29_117 VGND VGND VPWR VPWR sky130_fd_sc_hd__fill_1
X_732_ _293_ _295_ VGND VGND VPWR VPWR _297_ sky130_fd_sc_hd__nand2_1
X_663_ net35 net36 net22 _176_ net56 VGND VGND VPWR VPWR _231_ sky130_fd_sc_hd__o41a_1
X_594_ _363_ _165_ _163_ VGND VGND VPWR VPWR _166_ sky130_fd_sc_hd__a21oi_1
XFILLER_26_109 VGND VGND VPWR VPWR sky130_fd_sc_hd__fill_1
XPHY_EDGE_ROW_16_Left_48 VGND VGND VPWR VPWR sky130_fd_sc_hd__decap_3
XFILLER_13_3 VPWR VGND VPWR VGND sky130_ef_sc_hd__decap_12
XFILLER_6_56 VGND VGND VPWR VPWR sky130_fd_sc_hd__fill_1
XFILLER_31_53 VGND VGND VPWR VPWR sky130_fd_sc_hd__decap_3
XTAP_TAPCELL_ROW_27_148 VGND VPWR sky130_fd_sc_hd__tapvpwrvgnd_1
XFILLER_31_189 VGND VGND VPWR VPWR sky130_fd_sc_hd__fill_1
Xoutput53 net53 VGND VGND VPWR VPWR zero sky130_fd_sc_hd__buf_2
Xoutput42 net42 VGND VGND VPWR VPWR ALU_result[14] sky130_fd_sc_hd__buf_2
X_646_ _334_ _178_ _195_ _335_ VGND VGND VPWR VPWR _215_ sky130_fd_sc_hd__o22a_1
X_715_ _349_ _204_ _280_ _346_ VGND VGND VPWR VPWR _281_ sky130_fd_sc_hd__o22a_1
X_577_ _367_ _148_ _149_ _144_ _147_ VGND VGND VPWR VPWR _150_ sky130_fd_sc_hd__o311a_1
XFILLER_22_189 VGND VGND VPWR VPWR sky130_fd_sc_hd__fill_1
XFILLER_26_97 VPWR VGND VPWR VGND sky130_ef_sc_hd__decap_12
XFILLER_26_75 VGND VGND VPWR VPWR sky130_fd_sc_hd__decap_8
XFILLER_13_189 VGND VGND VPWR VPWR sky130_fd_sc_hd__fill_1
X_500_ _348_ _074_ _075_ _345_ VGND VGND VPWR VPWR _076_ sky130_fd_sc_hd__a22o_1
X_431_ net67 _362_ _004_ _007_ _008_ VGND VGND VPWR VPWR _009_ sky130_fd_sc_hd__o311a_1
XFILLER_9_127 VGND VGND VPWR VPWR sky130_fd_sc_hd__decap_4
XFILLER_9_138 VGND VGND VPWR VPWR sky130_fd_sc_hd__decap_4
X_629_ _335_ _192_ VGND VGND VPWR VPWR _199_ sky130_fd_sc_hd__and2_1
Xfanout106 net1 VGND VGND VPWR VPWR net106 sky130_fd_sc_hd__buf_2
XPHY_EDGE_ROW_19_Left_51 VGND VGND VPWR VPWR sky130_fd_sc_hd__decap_3
XFILLER_12_44 VPWR VGND VPWR VGND sky130_ef_sc_hd__decap_12
XFILLER_10_137 VGND VGND VPWR VPWR sky130_fd_sc_hd__decap_3
XFILLER_5_130 VGND VGND VPWR VPWR sky130_fd_sc_hd__decap_3
X_414_ _363_ net59 _368_ net82 _366_ VGND VGND VPWR VPWR _369_ sky130_fd_sc_hd__a221o_1
XFILLER_23_43 VPWR VGND VPWR VGND sky130_ef_sc_hd__decap_12
XFILLER_23_10 VGND VGND VPWR VPWR sky130_fd_sc_hd__fill_1
XPHY_EDGE_ROW_21_Right_21 VGND VGND VPWR VPWR sky130_fd_sc_hd__decap_3
XPHY_EDGE_ROW_12_Right_12 VGND VGND VPWR VPWR sky130_fd_sc_hd__decap_3
XPHY_EDGE_ROW_4_Left_36 VGND VGND VPWR VPWR sky130_fd_sc_hd__decap_3
XPHY_EDGE_ROW_30_Right_30 VGND VGND VPWR VPWR sky130_fd_sc_hd__decap_3
XFILLER_23_98 VGND VGND VPWR VPWR sky130_fd_sc_hd__fill_2
XFILLER_0_69 VGND VGND VPWR VPWR sky130_fd_sc_hd__fill_1
XFILLER_2_133 VGND VGND VPWR VPWR sky130_fd_sc_hd__fill_1
XFILLER_2_155 VPWR VGND VPWR VGND sky130_ef_sc_hd__decap_12
XFILLER_15_7 VGND VGND VPWR VPWR sky130_fd_sc_hd__decap_3
X_731_ _256_ _294_ _293_ _274_ VGND VGND VPWR VPWR _296_ sky130_fd_sc_hd__a211o_1
XFILLER_29_31 VPWR VGND VPWR VGND sky130_ef_sc_hd__decap_12
X_662_ _371_ _217_ _218_ _230_ VGND VGND VPWR VPWR net38 sky130_fd_sc_hd__o31ai_1
XFILLER_20_77 VGND VGND VPWR VPWR sky130_fd_sc_hd__decap_6
XFILLER_1_90 VGND VGND VPWR VPWR sky130_fd_sc_hd__decap_4
X_593_ _164_ _065_ net74 VGND VGND VPWR VPWR _165_ sky130_fd_sc_hd__mux2_1
XTAP_TAPCELL_ROW_27_149 VGND VPWR sky130_fd_sc_hd__tapvpwrvgnd_1
XFILLER_25_165 VGND VGND VPWR VPWR sky130_fd_sc_hd__decap_3
XFILLER_25_121 VPWR VGND VPWR VGND sky130_ef_sc_hd__decap_12
XPHY_EDGE_ROW_6_Right_6 VGND VGND VPWR VPWR sky130_fd_sc_hd__decap_3
Xoutput43 net43 VGND VGND VPWR VPWR ALU_result[15] sky130_fd_sc_hd__buf_2
XFILLER_31_113 VGND VGND VPWR VPWR sky130_fd_sc_hd__fill_2
XFILLER_31_76 VGND VGND VPWR VPWR sky130_fd_sc_hd__decap_8
X_645_ _171_ _174_ _213_ VGND VGND VPWR VPWR _214_ sky130_fd_sc_hd__a21o_1
X_714_ net60 net62 net65 net66 net84 net78 VGND VGND VPWR VPWR _280_ sky130_fd_sc_hd__mux4_1
XFILLER_16_110 VGND VGND VPWR VPWR sky130_fd_sc_hd__fill_1
XFILLER_15_99 VGND VGND VPWR VPWR sky130_fd_sc_hd__decap_6
X_576_ net94 net92 _099_ VGND VGND VPWR VPWR _149_ sky130_fd_sc_hd__and3_1
XFILLER_22_157 VGND VGND VPWR VPWR sky130_fd_sc_hd__fill_1
XFILLER_26_10 VGND VGND VPWR VPWR sky130_fd_sc_hd__fill_2
XFILLER_13_157 VGND VGND VPWR VPWR sky130_fd_sc_hd__decap_8
XFILLER_13_113 VPWR VGND VPWR VGND sky130_ef_sc_hd__decap_12
XFILLER_13_102 VGND VGND VPWR VPWR sky130_fd_sc_hd__decap_3
X_430_ net100 net75 net54 _006_ VGND VGND VPWR VPWR _008_ sky130_fd_sc_hd__o211ai_1
X_628_ _179_ _181_ _196_ VGND VGND VPWR VPWR _198_ sky130_fd_sc_hd__a21oi_1
X_559_ _082_ _085_ _104_ _105_ _130_ VGND VGND VPWR VPWR _132_ sky130_fd_sc_hd__a311o_1
XFILLER_8_161 VPWR VGND VPWR VGND sky130_ef_sc_hd__decap_12
XFILLER_12_89 VGND VGND VPWR VPWR sky130_fd_sc_hd__fill_1
XFILLER_12_56 VPWR VGND VPWR VGND sky130_ef_sc_hd__decap_12
X_413_ net105 _360_ VGND VGND VPWR VPWR _368_ sky130_fd_sc_hd__nor2_4
XTAP_TAPCELL_ROW_11_100 VGND VPWR sky130_fd_sc_hd__tapvpwrvgnd_1
XPHY_EDGE_ROW_20_Left_52 VGND VGND VPWR VPWR sky130_fd_sc_hd__decap_3
XFILLER_23_55 VGND VGND VPWR VPWR sky130_fd_sc_hd__fill_1
XFILLER_0_15 VGND VGND VPWR VPWR sky130_fd_sc_hd__fill_2
XFILLER_2_167 VPWR VGND VPWR VGND sky130_ef_sc_hd__decap_12
XFILLER_3_3 VPWR VGND VPWR VGND sky130_ef_sc_hd__decap_12
X_730_ _256_ _294_ _274_ VGND VGND VPWR VPWR _295_ sky130_fd_sc_hd__a21o_1
XFILLER_29_43 VGND VGND VPWR VPWR sky130_fd_sc_hd__decap_4
XFILLER_28_163 VPWR VGND VPWR VGND sky130_ef_sc_hd__decap_12
XFILLER_28_141 VPWR VGND VPWR VGND sky130_ef_sc_hd__decap_12
X_661_ _222_ _226_ _229_ VGND VGND VPWR VPWR _230_ sky130_fd_sc_hd__and3_1
X_592_ net91 net93 net95 net15 net81 net75 VGND VGND VPWR VPWR _164_ sky130_fd_sc_hd__mux4_1
XFILLER_31_99 VGND VGND VPWR VPWR sky130_fd_sc_hd__fill_2
X_644_ _180_ _196_ VGND VGND VPWR VPWR _213_ sky130_fd_sc_hd__or2_1
XFILLER_25_155 VGND VGND VPWR VPWR sky130_fd_sc_hd__fill_2
XFILLER_25_133 VPWR VGND VPWR VGND sky130_ef_sc_hd__decap_12
XFILLER_25_111 VGND VGND VPWR VPWR sky130_fd_sc_hd__fill_1
X_713_ net60 _268_ net58 VGND VGND VPWR VPWR _279_ sky130_fd_sc_hd__o21ai_1
X_575_ net94 _099_ net92 VGND VGND VPWR VPWR _148_ sky130_fd_sc_hd__a21oi_1
Xoutput44 net44 VGND VGND VPWR VPWR ALU_result[1] sky130_fd_sc_hd__buf_2
XFILLER_31_169 VPWR VGND VPWR VGND sky130_ef_sc_hd__decap_12
XFILLER_31_147 VGND VGND VPWR VPWR sky130_fd_sc_hd__decap_3
XFILLER_26_33 VGND VGND VPWR VPWR sky130_fd_sc_hd__fill_1
XFILLER_22_169 VPWR VGND VPWR VGND sky130_ef_sc_hd__decap_12
XFILLER_13_169 VPWR VGND VPWR VGND sky130_ef_sc_hd__decap_12
XFILLER_13_147 VGND VGND VPWR VPWR sky130_fd_sc_hd__decap_4
XFILLER_9_107 VGND VGND VPWR VPWR sky130_fd_sc_hd__decap_4
X_627_ _179_ _181_ _196_ VGND VGND VPWR VPWR _197_ sky130_fd_sc_hd__and3_1
X_558_ _082_ _105_ _104_ VGND VGND VPWR VPWR _131_ sky130_fd_sc_hd__o21a_1
XFILLER_3_15 VPWR VGND VPWR VGND sky130_ef_sc_hd__decap_12
X_489_ net97 net98 net100 net5 net81 net75 VGND VGND VPWR VPWR _065_ sky130_fd_sc_hd__mux4_1
XFILLER_8_173 VPWR VGND VPWR VGND sky130_ef_sc_hd__decap_12
XFILLER_12_68 VGND VGND VPWR VPWR sky130_fd_sc_hd__decap_8
XFILLER_10_106 VGND VGND VPWR VPWR sky130_fd_sc_hd__fill_1
XTAP_TAPCELL_ROW_11_101 VGND VPWR sky130_fd_sc_hd__tapvpwrvgnd_1
X_412_ net88 net104 net3 net4 VGND VGND VPWR VPWR _367_ sky130_fd_sc_hd__or4b_4
XFILLER_2_179 VGND VGND VPWR VPWR sky130_fd_sc_hd__decap_8
Xfanout90 net18 VGND VGND VPWR VPWR net90 sky130_fd_sc_hd__buf_2
XFILLER_9_25 VPWR VGND VPWR VGND sky130_ef_sc_hd__decap_12
XFILLER_18_78 VGND VGND VPWR VPWR sky130_fd_sc_hd__fill_1
XFILLER_18_45 VGND VGND VPWR VPWR sky130_fd_sc_hd__decap_8
XFILLER_28_175 VPWR VGND VPWR VGND sky130_ef_sc_hd__decap_12
XFILLER_28_153 VGND VGND VPWR VPWR sky130_fd_sc_hd__fill_2
X_660_ _367_ _227_ _228_ VGND VGND VPWR VPWR _229_ sky130_fd_sc_hd__or3_1
X_591_ net90 net34 _368_ _161_ _162_ VGND VGND VPWR VPWR _163_ sky130_fd_sc_hd__a311o_1
XFILLER_25_189 VGND VGND VPWR VPWR sky130_fd_sc_hd__fill_1
XFILLER_25_145 VGND VGND VPWR VPWR sky130_fd_sc_hd__fill_2
X_712_ net60 _268_ VGND VGND VPWR VPWR _278_ sky130_fd_sc_hd__and2_1
Xoutput45 net45 VGND VGND VPWR VPWR ALU_result[2] sky130_fd_sc_hd__buf_2
XFILLER_31_104 VGND VGND VPWR VPWR sky130_fd_sc_hd__decap_4
X_643_ _336_ _210_ VGND VGND VPWR VPWR _212_ sky130_fd_sc_hd__xnor2_1
X_574_ _146_ _360_ _145_ VGND VGND VPWR VPWR _147_ sky130_fd_sc_hd__mux2_1
XFILLER_16_189 VGND VGND VPWR VPWR sky130_fd_sc_hd__fill_1
XFILLER_26_67 VGND VGND VPWR VPWR sky130_fd_sc_hd__fill_1
XFILLER_7_80 VGND VGND VPWR VPWR sky130_fd_sc_hd__fill_1
X_626_ _335_ _195_ VGND VGND VPWR VPWR _196_ sky130_fd_sc_hd__xnor2_1
XTAP_TAPCELL_ROW_14_110 VGND VPWR sky130_fd_sc_hd__tapvpwrvgnd_1
X_557_ net92 _128_ VGND VGND VPWR VPWR _130_ sky130_fd_sc_hd__xnor2_1
X_488_ _036_ _062_ _063_ _049_ VGND VGND VPWR VPWR _064_ sky130_fd_sc_hd__a22o_1
XFILLER_12_170 VPWR VGND VPWR VGND sky130_ef_sc_hd__decap_12
XFILLER_12_25 VGND VGND VPWR VPWR sky130_fd_sc_hd__decap_3
XFILLER_8_141 VGND VGND VPWR VPWR sky130_fd_sc_hd__decap_8
XFILLER_8_185 VGND VGND VPWR VPWR sky130_fd_sc_hd__decap_4
XTAP_TAPCELL_ROW_11_102 VGND VPWR sky130_fd_sc_hd__tapvpwrvgnd_1
X_411_ net88 net104 net3 net4 VGND VGND VPWR VPWR _366_ sky130_fd_sc_hd__nor4b_2
XFILLER_5_144 VGND VGND VPWR VPWR sky130_fd_sc_hd__decap_3
X_609_ _334_ _178_ VGND VGND VPWR VPWR _180_ sky130_fd_sc_hd__xnor2_1
XFILLER_23_57 VPWR VGND VPWR VGND sky130_ef_sc_hd__decap_12
XFILLER_2_114 VGND VGND VPWR VPWR sky130_fd_sc_hd__fill_1
XFILLER_2_125 VGND VGND VPWR VPWR sky130_fd_sc_hd__decap_4
XFILLER_2_147 VGND VGND VPWR VPWR sky130_fd_sc_hd__fill_1
Xfanout91 net18 VGND VGND VPWR VPWR net91 sky130_fd_sc_hd__buf_1
Xfanout80 net28 VGND VGND VPWR VPWR net80 sky130_fd_sc_hd__clkbuf_2
XFILLER_13_90 VGND VGND VPWR VPWR sky130_fd_sc_hd__decap_4
XFILLER_9_37 VGND VGND VPWR VPWR sky130_fd_sc_hd__fill_1
XFILLER_28_187 VGND VGND VPWR VPWR sky130_fd_sc_hd__decap_3
X_590_ net68 net102 _049_ VGND VGND VPWR VPWR _162_ sky130_fd_sc_hd__and3_2
XFILLER_19_154 VGND VGND VPWR VPWR sky130_fd_sc_hd__decap_6
XFILLER_31_57 VGND VGND VPWR VPWR sky130_fd_sc_hd__fill_2
Xoutput46 net46 VGND VGND VPWR VPWR ALU_result[3] sky130_fd_sc_hd__buf_2
X_642_ _336_ _210_ VGND VGND VPWR VPWR _211_ sky130_fd_sc_hd__nor2_1
X_711_ _253_ _256_ _275_ _371_ VGND VGND VPWR VPWR _277_ sky130_fd_sc_hd__a31o_1
XPHY_EDGE_ROW_28_Right_28 VGND VGND VPWR VPWR sky130_fd_sc_hd__decap_3
XPHY_EDGE_ROW_19_Right_19 VGND VGND VPWR VPWR sky130_fd_sc_hd__decap_3
XFILLER_16_179 VGND VGND VPWR VPWR sky130_fd_sc_hd__fill_1
X_573_ net92 net33 net54 VGND VGND VPWR VPWR _146_ sky130_fd_sc_hd__o21ai_1
XFILLER_7_92 VPWR VGND VPWR VGND sky130_ef_sc_hd__decap_12
X_625_ net36 _194_ VGND VGND VPWR VPWR _195_ sky130_fd_sc_hd__xnor2_1
XTAP_TAPCELL_ROW_14_111 VGND VPWR sky130_fd_sc_hd__tapvpwrvgnd_1
X_556_ net92 _128_ VGND VGND VPWR VPWR _129_ sky130_fd_sc_hd__nand2_1
XFILLER_12_182 VGND VGND VPWR VPWR sky130_fd_sc_hd__decap_4
X_487_ _050_ _061_ VGND VGND VPWR VPWR _063_ sky130_fd_sc_hd__or2_1
X_410_ net71 net82 net76 VGND VGND VPWR VPWR _365_ sky130_fd_sc_hd__nor3_1
X_608_ _334_ _178_ VGND VGND VPWR VPWR _179_ sky130_fd_sc_hd__or2_1
X_539_ net71 _110_ _112_ _361_ VGND VGND VPWR VPWR _113_ sky130_fd_sc_hd__o211ai_2
XFILLER_23_69 VGND VGND VPWR VPWR sky130_fd_sc_hd__decap_4
XPHY_EDGE_ROW_24_Left_56 VGND VGND VPWR VPWR sky130_fd_sc_hd__decap_3
Xfanout92 net17 VGND VGND VPWR VPWR net92 sky130_fd_sc_hd__buf_2
XFILLER_0_29 VGND VGND VPWR VPWR sky130_fd_sc_hd__fill_2
Xfanout70 net30 VGND VGND VPWR VPWR net70 sky130_fd_sc_hd__clkbuf_2
XFILLER_2_137 VGND VGND VPWR VPWR sky130_fd_sc_hd__decap_3
Xfanout81 net84 VGND VGND VPWR VPWR net81 sky130_fd_sc_hd__clkbuf_4
XFILLER_1_181 VGND VGND VPWR VPWR sky130_fd_sc_hd__decap_8
XFILLER_1_3 VPWR VGND VPWR VGND sky130_ef_sc_hd__decap_12
XFILLER_20_26 VGND VGND VPWR VPWR sky130_fd_sc_hd__fill_2
XFILLER_10_92 VGND VGND VPWR VPWR sky130_fd_sc_hd__decap_3
XFILLER_25_169 VPWR VGND VPWR VGND sky130_ef_sc_hd__decap_12
XPHY_EDGE_ROW_11_Left_43 VGND VGND VPWR VPWR sky130_fd_sc_hd__decap_3
X_641_ net22 _209_ VGND VGND VPWR VPWR _210_ sky130_fd_sc_hd__xor2_1
X_710_ _253_ _256_ _275_ VGND VGND VPWR VPWR _276_ sky130_fd_sc_hd__a21oi_1
X_572_ net105 net92 net33 VGND VGND VPWR VPWR _145_ sky130_fd_sc_hd__and3b_1
Xoutput47 net47 VGND VGND VPWR VPWR ALU_result[4] sky130_fd_sc_hd__buf_2
XFILLER_22_139 VGND VGND VPWR VPWR sky130_fd_sc_hd__fill_1
XTAP_TAPCELL_ROW_17_120 VGND VPWR sky130_fd_sc_hd__tapvpwrvgnd_1
XFILLER_26_25 VGND VGND VPWR VPWR sky130_fd_sc_hd__decap_3
XFILLER_21_172 VPWR VGND VPWR VGND sky130_ef_sc_hd__decap_12
XFILLER_13_139 VGND VGND VPWR VPWR sky130_fd_sc_hd__fill_1
X_624_ net35 _176_ net56 VGND VGND VPWR VPWR _194_ sky130_fd_sc_hd__o21ai_1
X_555_ net33 _127_ VGND VGND VPWR VPWR _128_ sky130_fd_sc_hd__xnor2_1
X_486_ net72 net101 _364_ _061_ VGND VGND VPWR VPWR _062_ sky130_fd_sc_hd__a31o_1
XFILLER_12_16 VGND VGND VPWR VPWR sky130_fd_sc_hd__fill_1
X_607_ net35 _177_ VGND VGND VPWR VPWR _178_ sky130_fd_sc_hd__xnor2_1
X_538_ net75 _003_ net71 VGND VGND VPWR VPWR _112_ sky130_fd_sc_hd__o21ai_1
X_469_ _366_ _044_ _045_ VGND VGND VPWR VPWR _046_ sky130_fd_sc_hd__and3_1
Xfanout60 net61 VGND VGND VPWR VPWR net60 sky130_fd_sc_hd__clkbuf_2
Xfanout93 net17 VGND VGND VPWR VPWR net93 sky130_fd_sc_hd__buf_1
Xfanout71 net74 VGND VGND VPWR VPWR net71 sky130_fd_sc_hd__buf_2
Xfanout82 net84 VGND VGND VPWR VPWR net82 sky130_fd_sc_hd__clkbuf_2
XFILLER_27_3 VGND VGND VPWR VPWR sky130_fd_sc_hd__fill_2
XFILLER_28_112 VGND VGND VPWR VPWR sky130_fd_sc_hd__decap_3
XFILLER_19_189 VGND VGND VPWR VPWR sky130_fd_sc_hd__fill_1
XFILLER_19_167 VGND VGND VPWR VPWR sky130_fd_sc_hd__fill_1
XFILLER_6_18 VGND VGND VPWR VPWR sky130_fd_sc_hd__decap_6
XFILLER_6_29 VGND VGND VPWR VPWR sky130_fd_sc_hd__decap_4
XFILLER_31_15 VPWR VGND VPWR VGND sky130_ef_sc_hd__decap_12
X_640_ net35 net36 _176_ net56 VGND VGND VPWR VPWR _209_ sky130_fd_sc_hd__o31a_1
X_571_ net68 _142_ _143_ _139_ VGND VGND VPWR VPWR _144_ sky130_fd_sc_hd__a31o_1
XPHY_EDGE_ROW_1_Right_1 VGND VGND VPWR VPWR sky130_fd_sc_hd__decap_3
Xoutput37 net37 VGND VGND VPWR VPWR ALU_result[0] sky130_fd_sc_hd__buf_2
Xoutput48 net48 VGND VGND VPWR VPWR ALU_result[5] sky130_fd_sc_hd__buf_2
XFILLER_21_184 VGND VGND VPWR VPWR sky130_fd_sc_hd__decap_3
X_623_ _181_ _182_ _191_ _193_ VGND VGND VPWR VPWR net51 sky130_fd_sc_hd__a211o_1
X_554_ net31 net32 _078_ net56 VGND VGND VPWR VPWR _127_ sky130_fd_sc_hd__o31a_1
X_485_ net72 _060_ VGND VGND VPWR VPWR _061_ sky130_fd_sc_hd__and2b_1
XTAP_TAPCELL_ROW_20_127 VGND VPWR sky130_fd_sc_hd__tapvpwrvgnd_1
XFILLER_5_136 VGND VGND VPWR VPWR sky130_fd_sc_hd__decap_8
XFILLER_5_169 VPWR VGND VPWR VGND sky130_ef_sc_hd__decap_12
X_606_ net56 _176_ VGND VGND VPWR VPWR _177_ sky130_fd_sc_hd__nand2_1
X_399_ net5 net81 VGND VGND VPWR VPWR _354_ sky130_fd_sc_hd__nand2_1
XFILLER_4_95 VGND VGND VPWR VPWR sky130_fd_sc_hd__decap_6
X_537_ _110_ VGND VGND VPWR VPWR _111_ sky130_fd_sc_hd__inv_2
X_468_ net12 net99 VGND VGND VPWR VPWR _045_ sky130_fd_sc_hd__or2_1
XFILLER_9_18 VGND VGND VPWR VPWR sky130_fd_sc_hd__fill_1
XFILLER_29_7 VPWR VGND VPWR VGND sky130_ef_sc_hd__decap_12
Xfanout61 net9 VGND VGND VPWR VPWR net61 sky130_fd_sc_hd__clkbuf_2
Xfanout83 net84 VGND VGND VPWR VPWR net83 sky130_fd_sc_hd__clkbuf_4
Xfanout72 net73 VGND VGND VPWR VPWR net72 sky130_fd_sc_hd__clkbuf_2
XTAP_TAPCELL_ROW_9_94 VGND VPWR sky130_fd_sc_hd__tapvpwrvgnd_1
Xfanout94 net95 VGND VGND VPWR VPWR net94 sky130_fd_sc_hd__clkbuf_2
XFILLER_18_27 VGND VGND VPWR VPWR sky130_fd_sc_hd__fill_1
XFILLER_1_63 VGND VGND VPWR VPWR sky130_fd_sc_hd__decap_6
XFILLER_19_113 VGND VGND VPWR VPWR sky130_fd_sc_hd__decap_4
XFILLER_10_83 VGND VGND VPWR VPWR sky130_fd_sc_hd__fill_1
XFILLER_19_124 VGND VGND VPWR VPWR sky130_fd_sc_hd__decap_4
Xoutput38 net38 VGND VGND VPWR VPWR ALU_result[10] sky130_fd_sc_hd__buf_2
XFILLER_31_27 VGND VGND VPWR VPWR sky130_fd_sc_hd__fill_1
XFILLER_15_39 VGND VGND VPWR VPWR sky130_fd_sc_hd__decap_3
Xoutput49 net49 VGND VGND VPWR VPWR ALU_result[6] sky130_fd_sc_hd__buf_2
X_570_ _037_ _140_ VGND VGND VPWR VPWR _143_ sky130_fd_sc_hd__or2_1
X_768_ net42 _316_ _325_ _330_ VGND VGND VPWR VPWR net53 sky130_fd_sc_hd__and4b_1
X_699_ net63 net24 _368_ _162_ _265_ VGND VGND VPWR VPWR _266_ sky130_fd_sc_hd__a311o_1
XPHY_EDGE_ROW_24_Right_24 VGND VGND VPWR VPWR sky130_fd_sc_hd__decap_3