*SPEF "ieee 1481-1999"
*DESIGN "ALU"
*DATE "14:58:57 Tuesday November 04, 2025"
*VENDOR "The OpenROAD Project"
*PROGRAM "OpenROAD"
*VERSION "edf00dff99f6c40d67a30c0e22a8191c5d2ed9d6"
*DESIGN_FLOW "NAME_SCOPE LOCAL" "PIN_CAP NONE"
*DIVIDER /
*DELIMITER :
*BUS_DELIMITER []
*T_UNIT 1 NS
*C_UNIT 1 PF
*R_UNIT 1 OHM
*L_UNIT 1 HENRY

*NAME_MAP
*1 ALU_control[0]
*2 ALU_control[1]
*3 ALU_control[2]
*4 ALU_control[3]
*5 ALU_result[0]
*6 ALU_result[10]
*7 ALU_result[11]
*8 ALU_result[12]
*9 ALU_result[13]
*10 ALU_result[14]
*11 ALU_result[15]
*12 ALU_result[1]
*13 ALU_result[2]
*14 ALU_result[3]
*15 ALU_result[4]
*16 ALU_result[5]
*17 ALU_result[6]
*18 ALU_result[7]
*19 ALU_result[8]
*20 ALU_result[9]
*21 SrcA[0]
*22 SrcA[10]
*23 SrcA[11]
*24 SrcA[12]
*25 SrcA[13]
*26 SrcA[14]
*27 SrcA[15]
*28 SrcA[1]
*29 SrcA[2]
*30 SrcA[3]
*31 SrcA[4]
*32 SrcA[5]
*33 SrcA[6]
*34 SrcA[7]
*35 SrcA[8]
*36 SrcA[9]
*37 SrcB[0]
*38 SrcB[10]
*39 SrcB[11]
*40 SrcB[12]
*41 SrcB[13]
*42 SrcB[14]
*43 SrcB[15]
*44 SrcB[1]
*45 SrcB[2]
*46 SrcB[3]
*47 SrcB[4]
*48 SrcB[5]
*49 SrcB[6]
*50 SrcB[7]
*51 SrcB[8]
*52 SrcB[9]
*55 zero
*56 _000_
*57 _001_
*58 _002_
*59 _003_
*60 _004_
*61 _005_
*62 _006_
*63 _007_
*64 _008_
*65 _009_
*66 _010_
*67 _011_
*68 _012_
*69 _013_
*70 _014_
*71 _015_
*72 _016_
*73 _017_
*74 _018_
*75 _019_
*76 _020_
*77 _021_
*78 _022_
*79 _023_
*80 _024_
*81 _025_
*82 _026_
*83 _027_
*84 _028_
*85 _029_
*86 _030_
*87 _031_
*88 _032_
*89 _033_
*90 _034_
*91 _035_
*92 _036_
*93 _037_
*94 _038_
*95 _039_
*96 _040_
*97 _041_
*98 _042_
*99 _043_
*100 _044_
*101 _045_
*102 _046_
*103 _047_
*104 _048_
*105 _049_
*106 _050_
*107 _051_
*108 _052_
*109 _053_
*110 _054_
*111 _055_
*112 _056_
*113 _057_
*114 _058_
*115 _059_
*116 _060_
*117 _061_
*118 _062_
*119 _063_
*120 _064_
*121 _065_
*122 _066_
*123 _067_
*124 _068_
*125 _069_
*126 _070_
*127 _071_
*128 _072_
*129 _073_
*130 _074_
*131 _075_
*132 _076_
*133 _077_
*134 _078_
*135 _079_
*136 _080_
*137 _081_
*138 _082_
*139 _083_
*140 _084_
*141 _085_
*142 _086_
*143 _087_
*144 _088_
*145 _089_
*146 _090_
*147 _091_
*148 _092_
*149 _093_
*150 _094_
*151 _095_
*152 _096_
*153 _097_
*154 _098_
*155 _099_
*156 _100_
*157 _101_
*158 _102_
*159 _103_
*160 _104_
*161 _105_
*162 _106_
*163 _107_
*164 _108_
*165 _109_
*166 _110_
*167 _111_
*168 _112_
*169 _113_
*170 _114_
*171 _115_
*172 _116_
*173 _117_
*174 _118_
*175 _119_
*176 _120_
*177 _121_
*178 _122_
*179 _123_
*180 _124_
*181 _125_
*182 _126_
*183 _127_
*184 _128_
*185 _129_
*186 _130_
*187 _131_
*188 _132_
*189 _133_
*190 _134_
*191 _135_
*192 _136_
*193 _137_
*194 _138_
*195 _139_
*196 _140_
*197 _141_
*198 _142_
*199 _143_
*200 _144_
*201 _145_
*202 _146_
*203 _147_
*204 _148_
*205 _149_
*206 _150_
*207 _151_
*208 _152_
*209 _153_
*210 _154_
*211 _155_
*212 _156_
*213 _157_
*214 _158_
*215 _159_
*216 _160_
*217 _161_
*218 _162_
*219 _163_
*220 _164_
*221 _165_
*222 _166_
*223 _167_
*224 _168_
*225 _169_
*226 _170_
*227 _171_
*228 _172_
*229 _173_
*230 _174_
*231 _175_
*232 _176_
*233 _177_
*234 _178_
*235 _179_
*236 _180_
*237 _181_
*238 _182_
*239 _183_
*240 _184_
*241 _185_
*242 _186_
*243 _187_
*244 _188_
*245 _189_
*246 _190_
*247 _191_
*248 _192_
*249 _193_
*250 _194_
*251 _195_
*252 _196_
*253 _197_
*254 _198_
*255 _199_
*256 _200_
*257 _201_
*258 _202_
*259 _203_
*260 _204_
*261 _205_
*262 _206_
*263 _207_
*264 _208_
*265 _209_
*266 _210_
*267 _211_
*268 _212_
*269 _213_
*270 _214_
*271 _215_
*272 _216_
*273 _217_
*274 _218_
*275 _219_
*276 _220_
*277 _221_
*278 _222_
*279 _223_
*280 _224_
*281 _225_
*282 _226_
*283 _227_
*284 _228_
*285 _229_
*286 _230_
*287 _231_
*288 _232_
*289 _233_
*290 _234_
*291 _235_
*292 _236_
*293 _237_
*294 _238_
*295 _239_
*296 _240_
*297 _241_
*298 _242_
*299 _243_
*300 _244_
*301 _245_
*302 _246_
*303 _247_
*304 _248_
*305 _249_
*306 _250_
*307 _251_
*308 _252_
*309 _253_
*310 _254_
*311 _255_
*312 _256_
*313 _257_
*314 _258_
*315 _259_
*316 _260_
*317 _261_
*318 _262_
*319 _263_
*320 _264_
*321 _265_
*322 _266_
*323 _267_
*324 _268_
*325 _269_
*326 _270_
*327 _271_
*328 _272_
*329 _273_
*330 _274_
*331 _275_
*332 _276_
*333 _277_
*334 _278_
*335 _279_
*336 _280_
*337 _281_
*338 _282_
*339 _283_
*340 _284_
*341 _285_
*342 _286_
*343 _287_
*344 _288_
*345 _289_
*346 _290_
*347 _291_
*348 _292_
*349 _293_
*350 _294_
*351 _295_
*352 _296_
*353 _297_
*354 _298_
*355 _299_
*356 _300_
*357 _301_
*358 _302_
*359 _303_
*360 _304_
*361 _305_
*362 _306_
*363 _307_
*364 _308_
*365 _309_
*366 _310_
*367 _311_
*368 _312_
*369 _313_
*370 _314_
*371 _315_
*372 _316_
*373 _317_
*374 _318_
*375 _319_
*376 _320_
*377 _321_
*378 _322_
*379 _323_
*380 _324_
*381 _325_
*382 _326_
*383 _327_
*384 _328_
*385 _329_
*386 _330_
*387 _331_
*388 _332_
*389 _333_
*390 _334_
*391 _335_
*392 _336_
*393 _337_
*394 _338_
*395 _339_
*396 _340_
*397 _341_
*398 _342_
*399 _343_
*400 _344_
*401 _345_
*402 _346_
*403 _347_
*404 _348_
*405 _349_
*406 _350_
*407 _351_
*408 _352_
*409 _353_
*410 _354_
*411 _355_
*412 _356_
*413 _357_
*414 _358_
*415 _359_
*416 _360_
*417 _361_
*418 _362_
*419 _363_
*420 _364_
*421 _365_
*422 _366_
*423 _367_
*424 _368_
*425 _369_
*426 _370_
*427 _371_
*428 _372_
*429 _373_
*430 _374_
*431 _375_
*432 net1
*433 net10
*434 net100
*435 net101
*436 net102
*437 net103
*438 net104
*439 net105
*440 net106
*441 net11
*442 net12
*443 net13
*444 net14
*445 net15
*446 net16
*447 net17
*448 net18
*449 net19
*450 net2
*451 net20
*452 net21
*453 net22
*454 net23
*455 net24
*456 net25
*457 net26
*458 net27
*459 net28
*460 net29
*461 net3
*462 net30
*463 net31
*464 net32
*465 net33
*466 net34
*467 net35
*468 net36
*469 net37
*470 net38
*471 net39
*472 net4
*473 net40
*474 net41
*475 net42
*476 net43
*477 net44
*478 net45
*479 net46
*480 net47
*481 net48
*482 net49
*483 net5
*484 net50
*485 net51
*486 net52
*487 net53
*488 net54
*489 net55
*490 net56
*491 net57
*492 net58
*493 net59
*494 net6
*495 net60
*496 net61
*497 net62
*498 net63
*499 net64
*500 net65
*501 net66
*502 net67
*503 net68
*504 net69
*505 net7
*506 net70
*507 net71
*508 net72
*509 net73
*510 net74
*511 net75
*512 net76
*513 net77
*514 net78
*515 net79
*516 net8
*517 net80
*518 net81
*519 net82
*520 net83
*521 net84
*522 net85
*523 net86
*524 net87
*525 net88
*526 net89
*527 net9
*528 net90
*529 net91
*530 net92
*531 net93
*532 net94
*533 net95
*534 net96
*535 net97
*536 net98
*537 net99
*538 FILLER_0_107
*539 FILLER_0_111
*540 FILLER_0_123
*541 FILLER_0_132
*542 FILLER_0_139
*543 FILLER_0_145
*544 FILLER_0_15
*545 FILLER_0_153
*546 FILLER_0_165
*547 FILLER_0_169
*548 FILLER_0_181
*549 FILLER_0_189
*550 FILLER_0_20
*551 FILLER_0_29
*552 FILLER_0_3
*553 FILLER_0_34
*554 FILLER_0_51
*555 FILLER_0_57
*556 FILLER_0_63
*557 FILLER_0_69
*558 FILLER_0_79
*559 FILLER_0_83
*560 FILLER_0_85
*561 FILLER_0_90
*562 FILLER_0_97
*563 FILLER_10_10
*564 FILLER_10_102
*565 FILLER_10_106
*566 FILLER_10_125
*567 FILLER_10_137
*568 FILLER_10_141
*569 FILLER_10_161
*570 FILLER_10_173
*571 FILLER_10_185
*572 FILLER_10_189
*573 FILLER_10_19
*574 FILLER_10_26
*575 FILLER_10_29
*576 FILLER_10_45
*577 FILLER_10_83
*578 FILLER_10_92
*579 FILLER_11_108
*580 FILLER_11_113
*581 FILLER_11_12
*582 FILLER_11_121
*583 FILLER_11_137
*584 FILLER_11_143
*585 FILLER_11_150
*586 FILLER_11_158
*587 FILLER_11_166
*588 FILLER_11_169
*589 FILLER_11_181
*590 FILLER_11_189
*591 FILLER_11_30
*592 FILLER_11_42
*593 FILLER_11_54
*594 FILLER_11_60
*595 FILLER_11_72
*596 FILLER_11_94
*597 FILLER_12_10
*598 FILLER_12_104
*599 FILLER_12_111
*600 FILLER_12_127
*601 FILLER_12_139
*602 FILLER_12_141
*603 FILLER_12_16
*604 FILLER_12_170
*605 FILLER_12_182
*606 FILLER_12_186
*607 FILLER_12_25
*608 FILLER_12_44
*609 FILLER_12_56
*610 FILLER_12_68
*611 FILLER_12_76
*612 FILLER_12_83
*613 FILLER_12_85
*614 FILLER_12_89
*615 FILLER_13_102
*616 FILLER_13_109
*617 FILLER_13_113
*618 FILLER_13_133
*619 FILLER_13_139
*620 FILLER_13_147
*621 FILLER_13_15
*622 FILLER_13_151
*623 FILLER_13_157
*624 FILLER_13_165
*625 FILLER_13_169
*626 FILLER_13_181
*627 FILLER_13_189
*628 FILLER_13_23
*629 FILLER_13_3
*630 FILLER_13_30
*631 FILLER_13_42
*632 FILLER_13_50
*633 FILLER_13_57
*634 FILLER_13_90
*635 FILLER_13_94
*636 FILLER_13_98
*637 FILLER_14_115
*638 FILLER_14_119
*639 FILLER_14_129
*640 FILLER_14_135
*641 FILLER_14_139
*642 FILLER_14_157
*643 FILLER_14_17
*644 FILLER_14_178
*645 FILLER_14_183
*646 FILLER_14_189
*647 FILLER_14_34
*648 FILLER_14_47
*649 FILLER_14_92
*650 FILLER_15_123
*651 FILLER_15_135
*652 FILLER_15_147
*653 FILLER_15_157
*654 FILLER_15_161
*655 FILLER_15_165
*656 FILLER_15_169
*657 FILLER_15_31
*658 FILLER_15_39
*659 FILLER_15_50
*660 FILLER_15_7
*661 FILLER_15_99
*662 FILLER_16_106
*663 FILLER_16_110
*664 FILLER_16_13
*665 FILLER_16_141
*666 FILLER_16_171
*667 FILLER_16_179
*668 FILLER_16_189
*669 FILLER_16_21
*670 FILLER_16_27
*671 FILLER_16_29
*672 FILLER_16_41
*673 FILLER_16_53
*674 FILLER_16_7
*675 FILLER_16_76
*676 FILLER_17_108
*677 FILLER_17_12
*678 FILLER_17_123
*679 FILLER_17_145
*680 FILLER_17_157
*681 FILLER_17_184
*682 FILLER_17_189
*683 FILLER_17_26
*684 FILLER_17_3
*685 FILLER_17_34
*686 FILLER_17_48
*687 FILLER_17_60
*688 FILLER_18_100
*689 FILLER_18_125
*690 FILLER_18_137
*691 FILLER_18_141
*692 FILLER_18_158
*693 FILLER_18_170
*694 FILLER_18_178
*695 FILLER_18_189
*696 FILLER_18_27
*697 FILLER_18_29
*698 FILLER_18_45
*699 FILLER_18_6
*700 FILLER_18_74
*701 FILLER_18_78
*702 FILLER_18_82
*703 FILLER_18_85
*704 FILLER_19_104
*705 FILLER_19_113
*706 FILLER_19_124
*707 FILLER_19_128
*708 FILLER_19_154
*709 FILLER_19_167
*710 FILLER_19_169
*711 FILLER_19_181
*712 FILLER_19_189
*713 FILLER_19_26
*714 FILLER_19_52
*715 FILLER_19_57
*716 FILLER_19_65
*717 FILLER_19_96
*718 FILLER_1_120
*719 FILLER_1_15
*720 FILLER_1_158
*721 FILLER_1_166
*722 FILLER_1_169
*723 FILLER_1_181
*724 FILLER_1_189
*725 FILLER_1_27
*726 FILLER_1_3
*727 FILLER_1_31
*728 FILLER_1_63
*729 FILLER_1_75
*730 FILLER_1_90
*731 FILLER_20_131
*732 FILLER_20_139
*733 FILLER_20_141
*734 FILLER_20_159
*735 FILLER_20_171
*736 FILLER_20_18
*737 FILLER_20_183
*738 FILLER_20_26
*739 FILLER_20_29
*740 FILLER_20_41
*741 FILLER_20_53
*742 FILLER_20_77
*743 FILLER_20_83
*744 FILLER_20_85
*745 FILLER_21_107
*746 FILLER_21_111
*747 FILLER_21_113
*748 FILLER_21_121
*749 FILLER_21_129
*750 FILLER_21_148
*751 FILLER_21_172
*752 FILLER_21_184
*753 FILLER_21_26
*754 FILLER_21_44
*755 FILLER_21_55
*756 FILLER_21_57
*757 FILLER_21_6
*758 FILLER_21_65
*759 FILLER_21_74
*760 FILLER_21_78
*761 FILLER_21_87
*762 FILLER_21_95
*763 FILLER_22_10
*764 FILLER_22_111
*765 FILLER_22_133
*766 FILLER_22_139
*767 FILLER_22_141
*768 FILLER_22_153
*769 FILLER_22_157
*770 FILLER_22_16
*771 FILLER_22_169
*772 FILLER_22_181
*773 FILLER_22_189
*774 FILLER_22_24
*775 FILLER_22_68
*776 FILLER_22_79
*777 FILLER_22_85
*778 FILLER_22_93
*779 FILLER_22_99
*780 FILLER_23_10
*781 FILLER_23_107
*782 FILLER_23_111
*783 FILLER_23_118
*784 FILLER_23_124
*785 FILLER_23_130
*786 FILLER_23_140
*787 FILLER_23_165
*788 FILLER_23_169
*789 FILLER_23_181
*790 FILLER_23_189
*791 FILLER_23_43
*792 FILLER_23_55
*793 FILLER_23_57
*794 FILLER_23_69
*795 FILLER_23_90
*796 FILLER_23_98
*797 FILLER_24_115
*798 FILLER_24_133
*799 FILLER_24_139
*800 FILLER_24_141
*801 FILLER_24_153
*802 FILLER_24_162
*803 FILLER_24_174
*804 FILLER_24_18
*805 FILLER_24_26
*806 FILLER_24_29
*807 FILLER_24_37
*808 FILLER_24_49
*809 FILLER_24_53
*810 FILLER_24_6
*811 FILLER_24_63
*812 FILLER_24_71
*813 FILLER_24_93
*814 FILLER_25_111
*815 FILLER_25_121
*816 FILLER_25_133
*817 FILLER_25_145
*818 FILLER_25_155
*819 FILLER_25_165
*820 FILLER_25_169
*821 FILLER_25_181
*822 FILLER_25_189
*823 FILLER_25_27
*824 FILLER_25_3
*825 FILLER_25_50
*826 FILLER_25_7
*827 FILLER_25_73
*828 FILLER_25_88
*829 FILLER_25_96
*830 FILLER_26_10
*831 FILLER_26_109
*832 FILLER_26_113
*833 FILLER_26_125
*834 FILLER_26_136
*835 FILLER_26_153
*836 FILLER_26_162
*837 FILLER_26_174
*838 FILLER_26_25
*839 FILLER_26_29
*840 FILLER_26_33
*841 FILLER_26_39
*842 FILLER_26_51
*843 FILLER_26_61
*844 FILLER_26_67
*845 FILLER_26_75
*846 FILLER_26_83
*847 FILLER_26_85
*848 FILLER_26_97
*849 FILLER_27_101
*850 FILLER_27_109
*851 FILLER_27_113
*852 FILLER_27_125
*853 FILLER_27_137
*854 FILLER_27_145
*855 FILLER_27_161
*856 FILLER_27_167
*857 FILLER_27_169
*858 FILLER_27_181
*859 FILLER_27_189
*860 FILLER_27_21
*861 FILLER_27_3
*862 FILLER_27_38
*863 FILLER_27_50
*864 FILLER_27_57
*865 FILLER_27_68
*866 FILLER_27_72
*867 FILLER_27_84
*868 FILLER_27_9
*869 FILLER_28_103
*870 FILLER_28_112
*871 FILLER_28_119
*872 FILLER_28_136
*873 FILLER_28_141
*874 FILLER_28_15
*875 FILLER_28_153
*876 FILLER_28_163
*877 FILLER_28_175
*878 FILLER_28_187
*879 FILLER_28_27
*880 FILLER_28_29
*881 FILLER_28_3
*882 FILLER_28_50
*883 FILLER_28_59
*884 FILLER_28_69
*885 FILLER_28_81
*886 FILLER_28_85
*887 FILLER_28_91
*888 FILLER_28_99
*889 FILLER_29_117
*890 FILLER_29_125
*891 FILLER_29_141
*892 FILLER_29_145
*893 FILLER_29_158
*894 FILLER_29_166
*895 FILLER_29_169
*896 FILLER_29_181
*897 FILLER_29_189
*898 FILLER_29_19
*899 FILLER_29_31
*900 FILLER_29_43
*901 FILLER_29_7
*902 FILLER_29_84
*903 FILLER_29_92
*904 FILLER_2_114
*905 FILLER_2_125
*906 FILLER_2_133
*907 FILLER_2_137
*908 FILLER_2_141
*909 FILLER_2_147
*910 FILLER_2_15
*911 FILLER_2_155
*912 FILLER_2_167
*913 FILLER_2_179
*914 FILLER_2_27
*915 FILLER_2_29
*916 FILLER_2_3
*917 FILLER_2_48
*918 FILLER_2_68
*919 FILLER_2_75
*920 FILLER_2_83
*921 FILLER_30_109
*922 FILLER_30_121
*923 FILLER_30_138
*924 FILLER_30_154
*925 FILLER_30_166
*926 FILLER_30_178
*927 FILLER_30_19
*928 FILLER_30_27
*929 FILLER_30_29
*930 FILLER_30_40
*931 FILLER_30_53
*932 FILLER_30_66
*933 FILLER_30_7
*934 FILLER_30_77
*935 FILLER_30_83
*936 FILLER_30_85
*937 FILLER_31_104
*938 FILLER_31_113
*939 FILLER_31_132
*940 FILLER_31_141
*941 FILLER_31_147
*942 FILLER_31_15
*943 FILLER_31_154
*944 FILLER_31_166
*945 FILLER_31_169
*946 FILLER_31_181
*947 FILLER_31_189
*948 FILLER_31_27
*949 FILLER_31_29
*950 FILLER_31_3
*951 FILLER_31_41
*952 FILLER_31_53
*953 FILLER_31_57
*954 FILLER_31_76
*955 FILLER_31_99
*956 FILLER_3_110
*957 FILLER_3_131
*958 FILLER_3_137
*959 FILLER_3_143
*960 FILLER_3_15
*961 FILLER_3_154
*962 FILLER_3_166
*963 FILLER_3_169
*964 FILLER_3_181
*965 FILLER_3_189
*966 FILLER_3_3
*967 FILLER_3_40
*968 FILLER_3_55
*969 FILLER_3_66
*970 FILLER_3_81
*971 FILLER_4_122
*972 FILLER_4_131
*973 FILLER_4_15
*974 FILLER_4_167
*975 FILLER_4_179
*976 FILLER_4_19
*977 FILLER_4_3
*978 FILLER_4_36
*979 FILLER_4_57
*980 FILLER_4_69
*981 FILLER_4_75
*982 FILLER_4_95
*983 FILLER_5_109
*984 FILLER_5_130
*985 FILLER_5_136
*986 FILLER_5_144
*987 FILLER_5_15
*988 FILLER_5_151
*989 FILLER_5_160
*990 FILLER_5_169
*991 FILLER_5_181
*992 FILLER_5_27
*993 FILLER_5_3
*994 FILLER_5_35
*995 FILLER_5_47
*996 FILLER_5_55
*997 FILLER_5_57
*998 FILLER_5_82
*999 FILLER_6_10
*1000 FILLER_6_122
*1001 FILLER_6_130
*1002 FILLER_6_139
*1003 FILLER_6_141
*1004 FILLER_6_164
*1005 FILLER_6_176
*1006 FILLER_6_18
*1007 FILLER_6_188
*1008 FILLER_6_29
*1009 FILLER_6_33
*1010 FILLER_6_40
*1011 FILLER_6_52
*1012 FILLER_6_56
*1013 FILLER_6_75
*1014 FILLER_6_83
*1015 FILLER_6_85
*1016 FILLER_6_97
*1017 FILLER_7_104
*1018 FILLER_7_113
*1019 FILLER_7_123
*1020 FILLER_7_145
*1021 FILLER_7_166
*1022 FILLER_7_172
*1023 FILLER_7_184
*1024 FILLER_7_22
*1025 FILLER_7_36
*1026 FILLER_7_48
*1027 FILLER_7_57
*1028 FILLER_7_7
*1029 FILLER_7_80
*1030 FILLER_7_92
*1031 FILLER_8_105
*1032 FILLER_8_117
*1033 FILLER_8_128
*1034 FILLER_8_141
*1035 FILLER_8_149
*1036 FILLER_8_161
*1037 FILLER_8_173
*1038 FILLER_8_185
*1039 FILLER_8_189
*1040 FILLER_8_26
*1041 FILLER_8_29
*1042 FILLER_8_3
*1043 FILLER_8_41
*1044 FILLER_8_74
*1045 FILLER_8_93
*1046 FILLER_9_10
*1047 FILLER_9_107
*1048 FILLER_9_111
*1049 FILLER_9_113
*1050 FILLER_9_127
*1051 FILLER_9_131
*1052 FILLER_9_138
*1053 FILLER_9_142
*1054 FILLER_9_154
*1055 FILLER_9_166
*1056 FILLER_9_169
*1057 FILLER_9_18
*1058 FILLER_9_181
*1059 FILLER_9_189
*1060 FILLER_9_25
*1061 FILLER_9_37
*1062 FILLER_9_55
*1063 FILLER_9_84
*1064 FILLER_9_96
*1065 PHY_EDGE_ROW_0_Left_32
*1066 PHY_EDGE_ROW_0_Right_0
*1067 PHY_EDGE_ROW_10_Left_42
*1068 PHY_EDGE_ROW_10_Right_10
*1069 PHY_EDGE_ROW_11_Left_43
*1070 PHY_EDGE_ROW_11_Right_11
*1071 PHY_EDGE_ROW_12_Left_44
*1072 PHY_EDGE_ROW_12_Right_12
*1073 PHY_EDGE_ROW_13_Left_45
*1074 PHY_EDGE_ROW_13_Right_13
*1075 PHY_EDGE_ROW_14_Left_46
*1076 PHY_EDGE_ROW_14_Right_14
*1077 PHY_EDGE_ROW_15_Left_47
*1078 PHY_EDGE_ROW_15_Right_15
*1079 PHY_EDGE_ROW_16_Left_48
*1080 PHY_EDGE_ROW_16_Right_16
*1081 PHY_EDGE_ROW_17_Left_49
*1082 PHY_EDGE_ROW_17_Right_17
*1083 PHY_EDGE_ROW_18_Left_50
*1084 PHY_EDGE_ROW_18_Right_18
*1085 PHY_EDGE_ROW_19_Left_51
*1086 PHY_EDGE_ROW_19_Right_19
*1087 PHY_EDGE_ROW_1_Left_33
*1088 PHY_EDGE_ROW_1_Right_1
*1089 PHY_EDGE_ROW_20_Left_52
*1090 PHY_EDGE_ROW_20_Right_20
*1091 PHY_EDGE_ROW_21_Left_53
*1092 PHY_EDGE_ROW_21_Right_21
*1093 PHY_EDGE_ROW_22_Left_54
*1094 PHY_EDGE_ROW_22_Right_22
*1095 PHY_EDGE_ROW_23_Left_55
*1096 PHY_EDGE_ROW_23_Right_23
*1097 PHY_EDGE_ROW_24_Left_56
*1098 PHY_EDGE_ROW_24_Right_24
*1099 PHY_EDGE_ROW_25_Left_57
*1100 PHY_EDGE_ROW_25_Right_25
*1101 PHY_EDGE_ROW_26_Left_58
*1102 PHY_EDGE_ROW_26_Right_26
*1103 PHY_EDGE_ROW_27_Left_59
*1104 PHY_EDGE_ROW_27_Right_27
*1105 PHY_EDGE_ROW_28_Left_60
*1106 PHY_EDGE_ROW_28_Right_28
*1107 PHY_EDGE_ROW_29_Left_61
*1108 PHY_EDGE_ROW_29_Right_29
*1109 PHY_EDGE_ROW_2_Left_34
*1110 PHY_EDGE_ROW_2_Right_2
*1111 PHY_EDGE_ROW_30_Left_62
*1112 PHY_EDGE_ROW_30_Right_30
*1113 PHY_EDGE_ROW_31_Left_63
*1114 PHY_EDGE_ROW_31_Right_31
*1115 PHY_EDGE_ROW_3_Left_35
*1116 PHY_EDGE_ROW_3_Right_3
*1117 PHY_EDGE_ROW_4_Left_36
*1118 PHY_EDGE_ROW_4_Right_4
*1119 PHY_EDGE_ROW_5_Left_37
*1120 PHY_EDGE_ROW_5_Right_5
*1121 PHY_EDGE_ROW_6_Left_38
*1122 PHY_EDGE_ROW_6_Right_6
*1123 PHY_EDGE_ROW_7_Left_39
*1124 PHY_EDGE_ROW_7_Right_7
*1125 PHY_EDGE_ROW_8_Left_40
*1126 PHY_EDGE_ROW_8_Right_8
*1127 PHY_EDGE_ROW_9_Left_41
*1128 PHY_EDGE_ROW_9_Right_9
*1129 TAP_TAPCELL_ROW_0_64
*1130 TAP_TAPCELL_ROW_0_65
*1131 TAP_TAPCELL_ROW_0_66
*1132 TAP_TAPCELL_ROW_0_67
*1133 TAP_TAPCELL_ROW_0_68
*1134 TAP_TAPCELL_ROW_0_69
*1135 TAP_TAPCELL_ROW_10_97
*1136 TAP_TAPCELL_ROW_10_98
*1137 TAP_TAPCELL_ROW_10_99
*1138 TAP_TAPCELL_ROW_11_100
*1139 TAP_TAPCELL_ROW_11_101
*1140 TAP_TAPCELL_ROW_11_102
*1141 TAP_TAPCELL_ROW_12_103
*1142 TAP_TAPCELL_ROW_12_104
*1143 TAP_TAPCELL_ROW_12_105
*1144 TAP_TAPCELL_ROW_13_106
*1145 TAP_TAPCELL_ROW_13_107
*1146 TAP_TAPCELL_ROW_13_108
*1147 TAP_TAPCELL_ROW_14_109
*1148 TAP_TAPCELL_ROW_14_110
*1149 TAP_TAPCELL_ROW_14_111
*1150 TAP_TAPCELL_ROW_15_112
*1151 TAP_TAPCELL_ROW_15_113
*1152 TAP_TAPCELL_ROW_15_114
*1153 TAP_TAPCELL_ROW_16_115
*1154 TAP_TAPCELL_ROW_16_116
*1155 TAP_TAPCELL_ROW_16_117
*1156 TAP_TAPCELL_ROW_17_118
*1157 TAP_TAPCELL_ROW_17_119
*1158 TAP_TAPCELL_ROW_17_120
*1159 TAP_TAPCELL_ROW_18_121
*1160 TAP_TAPCELL_ROW_18_122
*1161 TAP_TAPCELL_ROW_18_123
*1162 TAP_TAPCELL_ROW_19_124
*1163 TAP_TAPCELL_ROW_19_125
*1164 TAP_TAPCELL_ROW_19_126
*1165 TAP_TAPCELL_ROW_1_70
*1166 TAP_TAPCELL_ROW_1_71
*1167 TAP_TAPCELL_ROW_1_72
*1168 TAP_TAPCELL_ROW_20_127
*1169 TAP_TAPCELL_ROW_20_128
*1170 TAP_TAPCELL_ROW_20_129
*1171 TAP_TAPCELL_ROW_21_130
*1172 TAP_TAPCELL_ROW_21_131
*1173 TAP_TAPCELL_ROW_21_132
*1174 TAP_TAPCELL_ROW_22_133
*1175 TAP_TAPCELL_ROW_22_134
*1176 TAP_TAPCELL_ROW_22_135
*1177 TAP_TAPCELL_ROW_23_136
*1178 TAP_TAPCELL_ROW_23_137
*1179 TAP_TAPCELL_ROW_23_138
*1180 TAP_TAPCELL_ROW_24_139
*1181 TAP_TAPCELL_ROW_24_140
*1182 TAP_TAPCELL_ROW_24_141
*1183 TAP_TAPCELL_ROW_25_142
*1184 TAP_TAPCELL_ROW_25_143
*1185 TAP_TAPCELL_ROW_25_144
*1186 TAP_TAPCELL_ROW_26_145
*1187 TAP_TAPCELL_ROW_26_146
*1188 TAP_TAPCELL_ROW_26_147
*1189 TAP_TAPCELL_ROW_27_148
*1190 TAP_TAPCELL_ROW_27_149
*1191 TAP_TAPCELL_ROW_27_150
*1192 TAP_TAPCELL_ROW_28_151
*1193 TAP_TAPCELL_ROW_28_152
*1194 TAP_TAPCELL_ROW_28_153
*1195 TAP_TAPCELL_ROW_29_154
*1196 TAP_TAPCELL_ROW_29_155
*1197 TAP_TAPCELL_ROW_29_156
*1198 TAP_TAPCELL_ROW_2_73
*1199 TAP_TAPCELL_ROW_2_74
*1200 TAP_TAPCELL_ROW_2_75
*1201 TAP_TAPCELL_ROW_30_157
*1202 TAP_TAPCELL_ROW_30_158
*1203 TAP_TAPCELL_ROW_30_159
*1204 TAP_TAPCELL_ROW_31_160
*1205 TAP_TAPCELL_ROW_31_161
*1206 TAP_TAPCELL_ROW_31_162
*1207 TAP_TAPCELL_ROW_31_163
*1208 TAP_TAPCELL_ROW_31_164
*1209 TAP_TAPCELL_ROW_31_165
*1210 TAP_TAPCELL_ROW_3_76
*1211 TAP_TAPCELL_ROW_3_77
*1212 TAP_TAPCELL_ROW_3_78
*1213 TAP_TAPCELL_ROW_4_79
*1214 TAP_TAPCELL_ROW_4_80
*1215 TAP_TAPCELL_ROW_4_81
*1216 TAP_TAPCELL_ROW_5_82
*1217 TAP_TAPCELL_ROW_5_83
*1218 TAP_TAPCELL_ROW_5_84
*1219 TAP_TAPCELL_ROW_6_85
*1220 TAP_TAPCELL_ROW_6_86
*1221 TAP_TAPCELL_ROW_6_87
*1222 TAP_TAPCELL_ROW_7_88
*1223 TAP_TAPCELL_ROW_7_89
*1224 TAP_TAPCELL_ROW_7_90
*1225 TAP_TAPCELL_ROW_8_91
*1226 TAP_TAPCELL_ROW_8_92
*1227 TAP_TAPCELL_ROW_8_93
*1228 TAP_TAPCELL_ROW_9_94
*1229 TAP_TAPCELL_ROW_9_95
*1230 TAP_TAPCELL_ROW_9_96
*1231 _376_
*1232 _377_
*1233 _378_
*1234 _379_
*1235 _380_
*1236 _381_
*1237 _382_
*1238 _383_
*1239 _384_
*1240 _385_
*1241 _386_
*1242 _387_
*1243 _388_
*1244 _389_
*1245 _390_
*1246 _391_
*1247 _392_
*1248 _393_
*1249 _394_
*1250 _395_
*1251 _396_
*1252 _397_
*1253 _398_
*1254 _399_
*1255 _400_
*1256 _401_
*1257 _402_
*1258 _403_
*1259 _404_
*1260 _405_
*1261 _406_
*1262 _407_
*1263 _408_
*1264 _409_
*1265 _410_
*1266 _411_
*1267 _412_
*1268 _413_
*1269 _414_
*1270 _415_
*1271 _416_
*1272 _417_
*1273 _418_
*1274 _419_
*1275 _420_
*1276 _421_
*1277 _422_
*1278 _423_
*1279 _424_
*1280 _425_
*1281 _426_
*1282 _427_
*1283 _428_
*1284 _429_
*1285 _430_
*1286 _431_
*1287 _432_
*1288 _433_
*1289 _434_
*1290 _435_
*1291 _436_
*1292 _437_
*1293 _438_
*1294 _439_
*1295 _440_
*1296 _441_
*1297 _442_
*1298 _443_
*1299 _444_
*1300 _445_
*1301 _446_
*1302 _447_
*1303 _448_
*1304 _449_
*1305 _450_
*1306 _451_
*1307 _452_
*1308 _453_
*1309 _454_
*1310 _455_
*1311 _456_
*1312 _457_
*1313 _458_
*1314 _459_
*1315 _460_
*1316 _461_
*1317 _462_
*1318 _463_
*1319 _464_
*1320 _465_
*1321 _466_
*1322 _467_
*1323 _468_
*1324 _469_
*1325 _470_
*1326 _471_
*1327 _472_
*1328 _473_
*1329 _474_
*1330 _475_
*1331 _476_
*1332 _477_
*1333 _478_
*1334 _479_
*1335 _480_
*1336 _481_
*1337 _482_
*1338 _483_
*1339 _484_
*1340 _485_
*1341 _486_
*1342 _487_
*1343 _488_
*1344 _489_
*1345 _490_
*1346 _491_
*1347 _492_
*1348 _493_
*1349 _494_
*1350 _495_
*1351 _496_
*1352 _497_
*1353 _498_
*1354 _499_
*1355 _500_
*1356 _501_
*1357 _502_
*1358 _503_
*1359 _504_
*1360 _505_
*1361 _506_
*1362 _507_
*1363 _508_
*1364 _509_
*1365 _510_
*1366 _511_
*1367 _512_
*1368 _513_
*1369 _514_
*1370 _515_
*1371 _516_
*1372 _517_
*1373 _518_
*1374 _519_
*1375 _520_
*1376 _521_
*1377 _522_
*1378 _523_
*1379 _524_
*1380 _525_
*1381 _526_
*1382 _527_
*1383 _528_
*1384 _529_
*1385 _530_
*1386 _531_
*1387 _532_
*1388 _533_
*1389 _534_
*1390 _535_
*1391 _536_
*1392 _537_
*1393 _538_
*1394 _539_
*1395 _540_
*1396 _541_
*1397 _542_
*1398 _543_
*1399 _544_
*1400 _545_
*1401 _546_
*1402 _547_
*1403 _548_
*1404 _549_
*1405 _550_
*1406 _551_
*1407 _552_
*1408 _553_
*1409 _554_
*1410 _555_
*1411 _556_
*1412 _557_
*1413 _558_
*1414 _559_
*1415 _560_
*1416 _561_
*1417 _562_
*1418 _563_
*1419 _564_
*1420 _565_
*1421 _566_
*1422 _567_
*1423 _568_
*1424 _569_
*1425 _570_
*1426 _571_
*1427 _572_
*1428 _573_
*1429 _574_
*1430 _575_
*1431 _576_
*1432 _577_
*1433 _578_
*1434 _579_
*1435 _580_
*1436 _581_
*1437 _582_
*1438 _583_
*1439 _584_
*1440 _585_
*1441 _586_
*1442 _587_
*1443 _588_
*1444 _589_
*1445 _590_
*1446 _591_
*1447 _592_
*1448 _593_
*1449 _594_
*1450 _595_
*1451 _596_
*1452 _597_
*1453 _598_
*1454 _599_
*1455 _600_
*1456 _601_
*1457 _602_
*1458 _603_
*1459 _604_
*1460 _605_
*1461 _606_
*1462 _607_
*1463 _608_
*1464 _609_
*1465 _610_
*1466 _611_
*1467 _612_
*1468 _613_
*1469 _614_
*1470 _615_
*1471 _616_
*1472 _617_
*1473 _618_
*1474 _619_
*1475 _620_
*1476 _621_
*1477 _622_
*1478 _623_
*1479 _624_
*1480 _625_
*1481 _626_
*1482 _627_
*1483 _628_
*1484 _629_
*1485 _630_
*1486 _631_
*1487 _632_
*1488 _633_
*1489 _634_
*1490 _635_
*1491 _636_
*1492 _637_
*1493 _638_
*1494 _639_
*1495 _640_
*1496 _641_
*1497 _642_
*1498 _643_
*1499 _644_
*1500 _645_
*1501 _646_
*1502 _647_
*1503 _648_
*1504 _649_
*1505 _650_
*1506 _651_
*1507 _652_
*1508 _653_
*1509 _654_
*1510 _655_
*1511 _656_
*1512 _657_
*1513 _658_
*1514 _659_
*1515 _660_
*1516 _661_
*1517 _662_
*1518 _663_
*1519 _664_
*1520 _665_
*1521 _666_
*1522 _667_
*1523 _668_
*1524 _669_
*1525 _670_
*1526 _671_
*1527 _672_
*1528 _673_
*1529 _674_
*1530 _675_
*1531 _676_
*1532 _677_
*1533 _678_
*1534 _679_
*1535 _680_
*1536 _681_
*1537 _682_
*1538 _683_
*1539 _684_
*1540 _685_
*1541 _686_
*1542 _687_
*1543 _688_
*1544 _689_
*1545 _690_
*1546 _691_
*1547 _692_
*1548 _693_
*1549 _694_
*1550 _695_
*1551 _696_
*1552 _697_
*1553 _698_
*1554 _699_
*1555 _700_
*1556 _701_
*1557 _702_
*1558 _703_
*1559 _704_
*1560 _705_
*1561 _706_
*1562 _707_
*1563 _708_
*1564 _709_
*1565 _710_
*1566 _711_
*1567 _712_
*1568 _713_
*1569 _714_
*1570 _715_
*1571 _716_
*1572 _717_
*1573 _718_
*1574 _719_
*1575 _720_
*1576 _721_
*1577 _722_
*1578 _723_
*1579 _724_
*1580 _725_
*1581 _726_
*1582 _727_
*1583 _728_
*1584 _729_
*1585 _730_
*1586 _731_
*1587 _732_
*1588 _733_
*1589 _734_
*1590 _735_
*1591 _736_
*1592 _737_
*1593 _738_
*1594 _739_
*1595 _740_
*1596 _741_
*1597 _742_
*1598 _743_
*1599 _744_
*1600 _745_
*1601 _746_
*1602 _747_
*1603 _748_
*1604 _749_
*1605 _750_
*1606 _751_
*1607 _752_
*1608 _753_
*1609 _754_
*1610 _755_
*1611 _756_
*1612 _757_
*1613 _758_
*1614 _759_
*1615 _760_
*1616 _761_
*1617 _762_
*1618 _763_
*1619 _764_
*1620 _765_
*1621 _766_
*1622 _767_
*1623 _768_
*1624 fanout100
*1625 fanout101
*1626 fanout102
*1627 fanout103
*1628 fanout104
*1629 fanout105
*1630 fanout106
*1631 fanout54
*1632 fanout55
*1633 fanout56
*1634 fanout57
*1635 fanout60
*1636 fanout61
*1637 fanout62
*1638 fanout63
*1639 fanout64
*1640 fanout65
*1641 fanout66
*1642 fanout67
*1643 fanout68
*1644 fanout69
*1645 fanout70
*1646 fanout71
*1647 fanout72
*1648 fanout73
*1649 fanout74
*1650 fanout75
*1651 fanout76
*1652 fanout77
*1653 fanout78
*1654 fanout79
*1655 fanout80
*1656 fanout81
*1657 fanout82
*1658 fanout83
*1659 fanout84
*1660 fanout85
*1661 fanout86
*1662 fanout87
*1663 fanout88
*1664 fanout89
*1665 fanout90
*1666 fanout91
*1667 fanout92
*1668 fanout93
*1669 fanout94
*1670 fanout95
*1671 fanout96
*1672 fanout97
*1673 fanout98
*1674 fanout99
*1675 input1
*1676 input10
*1677 input11
*1678 input12
*1679 input13
*1680 input14
*1681 input15
*1682 input16
*1683 input17
*1684 input18
*1685 input19
*1686 input2
*1687 input20
*1688 input21
*1689 input22
*1690 input23
*1691 input24
*1692 input25
*1693 input26
*1694 input27
*1695 input28
*1696 input29
*1697 input3
*1698 input30
*1699 input31
*1700 input32
*1701 input33
*1702 input34
*1703 input35
*1704 input36
*1705 input4
*1706 input5
*1707 input6
*1708 input7
*1709 input8
*1710 input9
*1711 max_cap58
*1712 max_cap59
*1713 output37
*1714 output38
*1715 output39
*1716 output40
*1717 output41
*1718 output42
*1719 output43
*1720 output44
*1721 output45
*1722 output46
*1723 output47
*1724 output48
*1725 output49
*1726 output50
*1727 output51
*1728 output52
*1729 output53

*PORTS
ALU_control[0] I
ALU_control[1] I
ALU_control[2] I
ALU_control[3] I
ALU_result[0] O
ALU_result[10] O
ALU_result[11] O
ALU_result[12] O
ALU_result[13] O
ALU_result[14] O
ALU_result[15] O
ALU_result[1] O
ALU_result[2] O
ALU_result[3] O
ALU_result[4] O
ALU_result[5] O
ALU_result[6] O
ALU_result[7] O
ALU_result[8] O
ALU_result[9] O
SrcA[0] I
SrcA[10] I
SrcA[11] I
SrcA[12] I
SrcA[13] I
SrcA[14] I
SrcA[15] I
SrcA[1] I
SrcA[2] I
SrcA[3] I
SrcA[4] I
SrcA[5] I
SrcA[6] I
SrcA[7] I
SrcA[8] I
SrcA[9] I
SrcB[0] I
SrcB[10] I
SrcB[11] I
SrcB[12] I
SrcB[13] I
SrcB[14] I
SrcB[15] I
SrcB[1] I
SrcB[2] I
SrcB[3] I
SrcB[4] I
SrcB[5] I
SrcB[6] I
SrcB[7] I
SrcB[8] I
SrcB[9] I
zero O

*D_NET *1 0.000818579
*CONN
*P ALU_control[0] I
*I *1675:A I *D sky130_fd_sc_hd__clkbuf_1
*CAP
1 ALU_control[0] 0.000385144
2 *1675:A 0.000385144
3 *1675:A *382:16 4.82919e-05
*RES
1 ALU_control[0] *1675:A 10.35 
*END

*D_NET *2 0.00140111
*CONN
*P ALU_control[1] I
*I *1686:A I *D sky130_fd_sc_hd__clkbuf_1
*CAP
1 ALU_control[1] 0.000582027
2 *1686:A 0.000582027
3 *1686:A *1256:B 8.52137e-06
4 *1686:A *1697:A 9.14049e-05
5 *1686:A *382:16 8.65905e-05
6 *1686:A *472:10 5.05437e-05
*RES
1 ALU_control[1] *1686:A 17.08 
*END

*D_NET *3 0.000920503
*CONN
*P ALU_control[2] I
*I *1697:A I *D sky130_fd_sc_hd__clkbuf_2
*CAP
1 ALU_control[2] 0.000345975
2 *1697:A 0.000345975
3 *1697:A *1705:A 0
4 *1697:A *382:16 8.65961e-05
5 *1697:A *472:8 5.05521e-05
6 *1686:A *1697:A 9.14049e-05
*RES
1 ALU_control[2] *1697:A 10.44 
*END

*D_NET *4 0.000934334
*CONN
*P ALU_control[3] I
*I *1705:A I *D sky130_fd_sc_hd__clkbuf_2
*CAP
1 ALU_control[3] 0.000379441
2 *1705:A 0.000379441
3 *1705:A *1678:A 0
4 *1705:A *382:16 0.0001249
5 *1705:A *472:8 5.05521e-05
6 *1697:A *1705:A 0
*RES
1 ALU_control[3] *1705:A 10.785 
*END

*D_NET *5 0.0016418
*CONN
*P ALU_result[0] O
*I *1713:X O *D sky130_fd_sc_hd__buf_2
*CAP
1 ALU_result[0] 0.000616419
2 *1713:X 0.000616419
3 ALU_result[0] ALU_result[1] 0
4 ALU_result[0] ALU_result[2] 0
5 ALU_result[0] *1306:A 9.82856e-06
6 ALU_result[0] *1338:A 5.06457e-05
7 ALU_result[0] *1364:C1 0
8 ALU_result[0] *1713:A 4.82919e-05
9 ALU_result[0] *1720:A 0
10 ALU_result[0] *78:20 0.000100209
11 ALU_result[0] *78:22 0.000107864
12 ALU_result[0] *140:22 9.21178e-05
*RES
1 *1713:X ALU_result[0] 14.61 
*END

*D_NET *6 0.00112565
*CONN
*P ALU_result[10] O
*I *1714:X O *D sky130_fd_sc_hd__buf_2
*CAP
1 ALU_result[10] 0.00052296
2 *1714:X 0.00052296
3 ALU_result[10] ALU_result[11] 0
4 ALU_result[10] *1623:D 2.66586e-05
5 ALU_result[10] *1708:A 0
6 ALU_result[10] *1714:A 5.30673e-05
*RES
1 *1714:X ALU_result[10] 12.405 
*END

*D_NET *7 0.00133162
*CONN
*P ALU_result[11] O
*I *1715:X O *D sky130_fd_sc_hd__buf_2
*CAP
1 ALU_result[11] 0.000575238
2 *1715:X 0.000575238
3 ALU_result[11] *1621:A_N 8.57024e-05
4 ALU_result[11] *1623:D 9.54399e-05
5 ALU_result[11] *1690:A 0
6 ALU_result[11] *426:93 0
7 ALU_result[11] *454:10 0