*SPEF "ieee 1481-1999"
*DESIGN "Sign_Extender"
*DATE "18:01:20 Thursday November 13, 2025"
*VENDOR "The OpenROAD Project"
*PROGRAM "OpenROAD"
*VERSION "edf00dff99f6c40d67a30c0e22a8191c5d2ed9d6"
*DESIGN_FLOW "NAME_SCOPE LOCAL" "PIN_CAP NONE"
*DIVIDER /
*DELIMITER :
*BUS_DELIMITER []
*T_UNIT 1 NS
*C_UNIT 1 PF
*R_UNIT 1 OHM
*L_UNIT 1 HENRY

*NAME_MAP
*1 ImmExt[0]
*2 ImmExt[10]
*3 ImmExt[11]
*4 ImmExt[12]
*5 ImmExt[13]
*6 ImmExt[14]
*7 ImmExt[15]
*8 ImmExt[1]
*9 ImmExt[2]
*10 ImmExt[3]
*11 ImmExt[4]
*12 ImmExt[5]
*13 ImmExt[6]
*14 ImmExt[7]
*15 ImmExt[8]
*16 ImmExt[9]
*17 ImmSrc[0]
*18 ImmSrc[1]
*21 instr[0]
*22 instr[10]
*23 instr[11]
*24 instr[12]
*25 instr[13]
*26 instr[14]
*27 instr[15]
*28 instr[1]
*29 instr[2]
*30 instr[3]
*31 instr[4]
*32 instr[5]
*33 instr[6]
*34 instr[7]
*35 instr[8]
*36 instr[9]
*37 _00_
*38 _01_
*39 _02_
*40 _03_
*41 _04_
*42 _05_
*43 net1
*44 net10
*45 net11
*46 net12
*47 net13
*48 net14
*49 net15
*50 net16
*51 net17
*52 net18
*53 net19
*54 net2
*55 net20
*56 net21
*57 net22
*58 net23
*59 net24
*60 net25
*61 net26
*62 net27
*63 net28
*64 net29
*65 net3
*66 net30
*67 net31
*68 net4
*69 net5
*70 net6
*71 net7
*72 net8
*73 net9
*74 FILLER_0_15
*75 FILLER_0_27
*76 FILLER_0_29
*77 FILLER_0_3
*78 FILLER_0_35
*79 FILLER_0_42
*80 FILLER_0_48
*81 FILLER_0_55
*82 FILLER_0_57
*83 FILLER_0_63
*84 FILLER_0_70
*85 FILLER_0_77
*86 FILLER_0_83
*87 FILLER_0_85
*88 FILLER_10_19
*89 FILLER_10_27
*90 FILLER_10_29
*91 FILLER_10_41
*92 FILLER_10_53
*93 FILLER_10_65
*94 FILLER_10_7
*95 FILLER_10_77
*96 FILLER_10_83
*97 FILLER_10_85
*98 FILLER_11_19
*99 FILLER_11_31
*100 FILLER_11_43
*101 FILLER_11_55
*102 FILLER_11_57
*103 FILLER_11_69
*104 FILLER_11_7
*105 FILLER_11_81
*106 FILLER_11_92
*107 FILLER_12_18
*108 FILLER_12_26
*109 FILLER_12_29
*110 FILLER_12_33
*111 FILLER_12_47
*112 FILLER_12_6
*113 FILLER_12_65
*114 FILLER_12_77
*115 FILLER_12_83
*116 FILLER_12_85
*117 FILLER_12_93
*118 FILLER_13_15
*119 FILLER_13_27
*120 FILLER_13_3
*121 FILLER_13_39
*122 FILLER_13_51
*123 FILLER_13_55
*124 FILLER_13_61
*125 FILLER_13_73
*126 FILLER_13_85
*127 FILLER_14_15
*128 FILLER_14_27
*129 FILLER_14_29
*130 FILLER_14_3
*131 FILLER_14_41
*132 FILLER_14_53
*133 FILLER_14_65
*134 FILLER_14_73
*135 FILLER_14_81
*136 FILLER_14_85
*137 FILLER_15_15
*138 FILLER_15_27
*139 FILLER_15_3
*140 FILLER_15_39
*141 FILLER_15_51
*142 FILLER_15_55
*143 FILLER_15_57
*144 FILLER_15_69
*145 FILLER_15_81
*146 FILLER_15_93
*147 FILLER_16_15
*148 FILLER_16_27
*149 FILLER_16_29
*150 FILLER_16_3
*151 FILLER_16_37
*152 FILLER_16_42
*153 FILLER_16_48
*154 FILLER_16_57
*155 FILLER_16_63
*156 FILLER_16_70
*157 FILLER_16_76
*158 FILLER_16_85
*159 FILLER_1_15
*160 FILLER_1_27
*161 FILLER_1_3
*162 FILLER_1_35
*163 FILLER_1_47
*164 FILLER_1_55
*165 FILLER_1_57
*166 FILLER_1_69
*167 FILLER_1_81
*168 FILLER_1_93
*169 FILLER_2_15
*170 FILLER_2_27
*171 FILLER_2_29
*172 FILLER_2_3
*173 FILLER_2_46
*174 FILLER_2_58
*175 FILLER_2_77
*176 FILLER_2_83
*177 FILLER_2_85
*178 FILLER_2_93
*179 FILLER_3_15
*180 FILLER_3_27
*181 FILLER_3_3
*182 FILLER_3_39
*183 FILLER_3_51
*184 FILLER_3_55
*185 FILLER_3_57
*186 FILLER_3_69
*187 FILLER_3_81
*188 FILLER_3_93
*189 FILLER_4_15
*190 FILLER_4_27
*191 FILLER_4_29
*192 FILLER_4_3
*193 FILLER_4_41
*194 FILLER_4_53
*195 FILLER_4_65
*196 FILLER_4_73
*197 FILLER_4_85
*198 FILLER_4_93
*199 FILLER_5_19
*200 FILLER_5_27
*201 FILLER_5_42
*202 FILLER_5_54
*203 FILLER_5_57
*204 FILLER_5_69
*205 FILLER_5_7
*206 FILLER_5_81
*207 FILLER_5_93
*208 FILLER_6_19
*209 FILLER_6_27
*210 FILLER_6_29
*211 FILLER_6_41
*212 FILLER_6_53
*213 FILLER_6_65
*214 FILLER_6_7
*215 FILLER_6_77
*216 FILLER_6_83
*217 FILLER_6_85
*218 FILLER_7_19
*219 FILLER_7_33
*220 FILLER_7_45
*221 FILLER_7_57
*222 FILLER_7_7
*223 FILLER_7_75
*224 FILLER_7_87
*225 FILLER_8_15
*226 FILLER_8_27
*227 FILLER_8_29
*228 FILLER_8_3
*229 FILLER_8_40
*230 FILLER_8_46
*231 FILLER_8_65
*232 FILLER_8_77
*233 FILLER_8_83
*234 FILLER_8_85
*235 FILLER_9_18
*236 FILLER_9_26
*237 FILLER_9_35
*238 FILLER_9_47
*239 FILLER_9_55
*240 FILLER_9_57
*241 FILLER_9_6
*242 FILLER_9_69
*243 FILLER_9_77
*244 FILLER_9_87
*245 FILLER_9_93
*246 PHY_EDGE_ROW_0_Left_17
*247 PHY_EDGE_ROW_0_Right_0
*248 PHY_EDGE_ROW_10_Left_27
*249 PHY_EDGE_ROW_10_Right_10
*250 PHY_EDGE_ROW_11_Left_28
*251 PHY_EDGE_ROW_11_Right_11
*252 PHY_EDGE_ROW_12_Left_29
*253 PHY_EDGE_ROW_12_Right_12
*254 PHY_EDGE_ROW_13_Left_30
*255 PHY_EDGE_ROW_13_Right_13
*256 PHY_EDGE_ROW_14_Left_31
*257 PHY_EDGE_ROW_14_Right_14
*258 PHY_EDGE_ROW_15_Left_32
*259 PHY_EDGE_ROW_15_Right_15
*260 PHY_EDGE_ROW_16_Left_33
*261 PHY_EDGE_ROW_16_Right_16
*262 PHY_EDGE_ROW_1_Left_18
*263 PHY_EDGE_ROW_1_Right_1
*264 PHY_EDGE_ROW_2_Left_19
*265 PHY_EDGE_ROW_2_Right_2
*266 PHY_EDGE_ROW_3_Left_20
*267 PHY_EDGE_ROW_3_Right_3
*268 PHY_EDGE_ROW_4_Left_21
*269 PHY_EDGE_ROW_4_Right_4
*270 PHY_EDGE_ROW_5_Left_22
*271 PHY_EDGE_ROW_5_Right_5
*272 PHY_EDGE_ROW_6_Left_23
*273 PHY_EDGE_ROW_6_Right_6
*274 PHY_EDGE_ROW_7_Left_24
*275 PHY_EDGE_ROW_7_Right_7
*276 PHY_EDGE_ROW_8_Left_25
*277 PHY_EDGE_ROW_8_Right_8
*278 PHY_EDGE_ROW_9_Left_26
*279 PHY_EDGE_ROW_9_Right_9
*280 TAP_TAPCELL_ROW_0_34
*281 TAP_TAPCELL_ROW_0_35
*282 TAP_TAPCELL_ROW_0_36
*283 TAP_TAPCELL_ROW_10_50
*284 TAP_TAPCELL_ROW_10_51
*285 TAP_TAPCELL_ROW_11_52
*286 TAP_TAPCELL_ROW_12_53
*287 TAP_TAPCELL_ROW_12_54
*288 TAP_TAPCELL_ROW_13_55
*289 TAP_TAPCELL_ROW_14_56
*290 TAP_TAPCELL_ROW_14_57
*291 TAP_TAPCELL_ROW_15_58
*292 TAP_TAPCELL_ROW_16_59
*293 TAP_TAPCELL_ROW_16_60
*294 TAP_TAPCELL_ROW_16_61
*295 TAP_TAPCELL_ROW_1_37
*296 TAP_TAPCELL_ROW_2_38
*297 TAP_TAPCELL_ROW_2_39
*298 TAP_TAPCELL_ROW_3_40
*299 TAP_TAPCELL_ROW_4_41
*300 TAP_TAPCELL_ROW_4_42
*301 TAP_TAPCELL_ROW_5_43
*302 TAP_TAPCELL_ROW_6_44
*303 TAP_TAPCELL_ROW_6_45
*304 TAP_TAPCELL_ROW_7_46
*305 TAP_TAPCELL_ROW_8_47
*306 TAP_TAPCELL_ROW_8_48
*307 TAP_TAPCELL_ROW_9_49
*308 _06_
*309 _07_
*310 _08_
*311 _09_
*312 _10_
*313 _11_
*314 _12_
*315 _13_
*316 _14_
*317 _15_
*318 _16_
*319 _17_
*320 _18_
*321 _19_
*322 _20_
*323 _21_
*324 _22_
*325 _23_
*326 _24_
*327 _25_
*328 _26_
*329 _27_
*330 fanout30
*331 fanout31
*332 input1
*333 input10
*334 input11
*335 input12
*336 input2
*337 input3
*338 input4
*339 input5
*340 input6
*341 input7
*342 input8
*343 input9
*344 max_cap29
*345 output13
*346 output14
*347 output15
*348 output16
*349 output17
*350 output18
*351 output19
*352 output20
*353 output21
*354 output22
*355 output23
*356 output24
*357 output25
*358 output26
*359 output27
*360 output28

*PORTS
ImmExt[0] O
ImmExt[10] O
ImmExt[11] O
ImmExt[12] O
ImmExt[13] O
ImmExt[14] O
ImmExt[15] O
ImmExt[1] O
ImmExt[2] O
ImmExt[3] O
ImmExt[4] O
ImmExt[5] O
ImmExt[6] O
ImmExt[7] O
ImmExt[8] O
ImmExt[9] O
ImmSrc[0] I
ImmSrc[1] I
instr[0] I
instr[10] I
instr[11] I
instr[12] I
instr[13] I
instr[14] I
instr[15] I
instr[1] I
instr[2] I
instr[3] I
instr[4] I
instr[5] I
instr[6] I
instr[7] I
instr[8] I
instr[9] I

*D_NET *1 0.000809287
*CONN
*P ImmExt[0] O
*I *345:X O *D sky130_fd_sc_hd__buf_2
*CAP
1 ImmExt[0] 0.000404643
2 *345:X 0.000404643
3 ImmExt[0] ImmExt[9] 0
*RES
1 *345:X ImmExt[0] 10.185 
*END

*D_NET *2 0.000530836
*CONN
*P ImmExt[10] O
*I *346:X O *D sky130_fd_sc_hd__buf_2
*CAP
1 ImmExt[10] 0.000176476
2 *346:X 0.000176476
3 ImmExt[10] ImmExt[15] 9.50048e-05
4 ImmExt[10] ImmExt[1] 0
5 ImmExt[10] *337:A 8.28789e-05
6 ImmExt[10] *346:A 0
*RES
1 *346:X ImmExt[10] 5.41503 
*END

*D_NET *3 0.00081412
*CONN
*P ImmExt[11] O
*I *347:X O *D sky130_fd_sc_hd__buf_2
*CAP
1 ImmExt[11] 0.00040706
2 *347:X 0.00040706
3 ImmExt[11] ImmExt[12] 0
*RES
1 *347:X ImmExt[11] 10.185 
*END

*D_NET *4 0.000888603
*CONN
*P ImmExt[12] O
*I *348:X O *D sky130_fd_sc_hd__buf_2
*CAP
1 ImmExt[12] 0.000427018
2 *348:X 0.000427018
3 ImmExt[12] *339:A 0
4 ImmExt[12] *347:A 3.45679e-05
5 ImmExt[11] ImmExt[12] 0
*RES
1 *348:X ImmExt[12] 10.53 
*END

*D_NET *5 0.000797554
*CONN
*P ImmExt[13] O
*I *349:X O *D sky130_fd_sc_hd__buf_2
*CAP
1 ImmExt[13] 0.000398777
2 *349:X 0.000398777
3 ImmExt[13] *340:A 0
*RES
1 *349:X ImmExt[13] 10.395 
*END

*D_NET *6 0.000472415
*CONN
*P ImmExt[14] O
*I *350:X O *D sky130_fd_sc_hd__buf_2
*CAP
1 ImmExt[14] 0.000152585
2 *350:X 0.000152585
3 ImmExt[14] ImmExt[1] 8.43674e-05
4 ImmExt[14] *343:A 8.28789e-05
*RES
1 *350:X ImmExt[14] 4.90503 
*END

*D_NET *7 0.000492107
*CONN
*P ImmExt[15] O
*I *351:X O *D sky130_fd_sc_hd__buf_2
*CAP
1 ImmExt[15] 0.000160165
2 *351:X 0.000160165
3 ImmExt[15] *342:A 7.67731e-05
4 ImmExt[10] ImmExt[15] 9.50048e-05
*RES
1 *351:X ImmExt[15] 5.16003 
*END

*D_NET *8 0.000467694
*CONN
*P ImmExt[1] O
*I *352:X O *D sky130_fd_sc_hd__buf_2
*CAP
1 ImmExt[1] 0.000148995
2 *352:X 0.000148995
3 ImmExt[1] *337:A 8.53361e-05
4 ImmExt[10] ImmExt[1] 0
5 ImmExt[14] ImmExt[1] 8.43674e-05
*RES
1 *352:X ImmExt[1] 4.90503 
*END

*D_NET *9 0.00066283
*CONN
*P ImmExt[2] O
*I *353:X O *D sky130_fd_sc_hd__buf_2
*CAP
1 ImmExt[2] 0.000317162
2 *353:X 0.000317162
3 ImmExt[2] ImmExt[3] 2.85068e-05
*RES
1 *353:X ImmExt[2] 7.1793 
*END

*D_NET *10 0.000478326
*CONN
*P ImmExt[3] O
*I *354:X O *D sky130_fd_sc_hd__buf_2
*CAP
1 ImmExt[3] 0.000209205
2 *354:X 0.000209205
3 ImmExt[3] ImmExt[5] 3.14094e-05
4 ImmExt[3] *341:A 0
5 ImmExt[2] ImmExt[3] 2.85068e-05
*RES
1 *354:X ImmExt[3] 4.90503 
*END

*D_NET *11 0.000660097
*CONN
*P ImmExt[4] O
*I *355:X O *D sky130_fd_sc_hd__buf_2
*CAP
1 ImmExt[4] 0.00030455
2 *355:X 0.00030455
3 ImmExt[4] *336:A 2.85068e-05
4 ImmExt[4] *341:A 2.24901e-05
*RES
1 *355:X ImmExt[4] 7.1793 
*END

*D_NET *12 0.000660243
*CONN
*P ImmExt[5] O
*I *356:X O *D sky130_fd_sc_hd__buf_2
*CAP
1 ImmExt[5] 0.000303172
2 *356:X 0.000303172
3 ImmExt[5] *341:A 2.24901e-05
4 ImmExt[3] ImmExt[5] 3.14094e-05
*RES
1 *356:X ImmExt[5] 7.1793 
*END

*D_NET *13 0.000813966
*CONN
*P ImmExt[6] O
*I *357:X O *D sky130_fd_sc_hd__buf_2
*CAP
1 ImmExt[6] 0.000406983
2 *357:X 0.000406983
3 ImmExt[6] ImmExt[7] 0
*RES
1 *357:X ImmExt[6] 10.185 
*END

*D_NET *14 0.000813966
*CONN
*P ImmExt[7] O
*I *358:X O *D sky130_fd_sc_hd__buf_2
*CAP
1 ImmExt[7] 0.000406983
2 *358:X 0.000406983
3 ImmExt[7] ImmExt[8] 0
4 ImmExt[6] ImmExt[7] 0
*RES
1 *358:X ImmExt[7] 10.185 
*END

*D_NET *15 0.000873426
*CONN
*P ImmExt[8] O
*I *359:X O *D sky130_fd_sc_hd__buf_2
*CAP
1 ImmExt[8] 0.000436713
2 *359:X 0.000436713
3 ImmExt[8] *338:A 0
4 ImmExt[7] ImmExt[8] 0
*RES
1 *359:X ImmExt[8] 10.53 
*END

*D_NET *16 0.000877032
*CONN
*P ImmExt[9] O
*I *360:X O *D sky130_fd_sc_hd__buf_2
*CAP
1 ImmExt[9] 0.000427962
2 *360:X 0.000427962
3 ImmExt[9] *335:A 0
4 ImmExt[9] *360:A 2.11084e-05
5 ImmExt[0] ImmExt[9] 0
*RES
1 *360:X ImmExt[9] 10.53 
*END

*D_NET *17 0.000567377
*CONN
*P ImmSrc[0] I
*I *332:A I *D sky130_fd_sc_hd__buf_1
*CAP
1 ImmSrc[0] 0.000272443
2 *332:A 0.000272443
3 *332:A *336:A 2.24901e-05
*RES
1 ImmSrc[0] *332:A 7.0893 
*END

*D_NET *18 0.00055711
*CONN
*P ImmSrc[1] I
*I *336:A I *D sky130_fd_sc_hd__clkbuf_2
*CAP
1 ImmSrc[1] 0.000253057
2 *336:A 0.000253057
3 *336:A *341:A 0
4 ImmExt[4] *336:A 2.85068e-05
5 *332:A *336:A 2.24901e-05
*RES
1 ImmSrc[1] *336:A 5.67003 
*END

*D_NET *22 0.000626773
*CONN
*P instr[10] I
*I *337:A I *D sky130_fd_sc_hd__clkbuf_1
*CAP
1 instr[10] 0.000229279
2 *337:A 0.000229279
3 ImmExt[10] *337:A 8.28789e-05
4 ImmExt[1] *337:A 8.53361e-05
*RES
1 instr[10] *337:A 6.63177 
*END

*D_NET *23 0.000882419
*CONN
*P instr[11] I
*I *338:A I *D sky130_fd_sc_hd__clkbuf_1
*CAP
1 instr[11] 0.000432017
2 *338:A 0.000432017
3 *338:A *339:A 0
4 *338:A *68:10 1.83847e-05
5 ImmExt[8] *338:A 0
*RES
1 instr[11] *338:A 11.04 
*END

*D_NET *24 0.000890185
*CONN
*P instr[12] I
*I *339:A I *D sky130_fd_sc_hd__clkbuf_1
*CAP
1 instr[12] 0.000440805
2 *339:A 0.000440805
3 *339:A *348:A 0
4 *339:A *68:10 4.9253e-06
5 *339:A *69:12 3.64998e-06
6 ImmExt[12] *339:A 0
7 *338:A *339:A 0
*RES
1 instr[12] *339:A 11.25 
*END

*D_NET *25 0.000819379
*CONN
*P instr[13] I
*I *340:A I *D sky130_fd_sc_hd__buf_1
*CAP
1 instr[13] 0.00040969
2 *340:A 0.00040969
3 ImmExt[13] *340:A 0
*RES
1 instr[13] *340:A 10.605 
*END

*D_NET *26 0.000634935
*CONN
*P instr[14] I
*I *341:A I *D sky130_fd_sc_hd__buf_1
*CAP
1 instr[14] 0.000294978
2 *341:A 0.000294978
3 ImmExt[3] *341:A 0
4 ImmExt[4] *341:A 2.24901e-05
5 ImmExt[5] *341:A 2.24901e-05
6 *336:A *341:A 0
*RES
1 instr[14] *341:A 6.63177 
*END

*D_NET *27 0.000413573
*CONN
*P instr[15] I
*I *342:A I *D sky130_fd_sc_hd__clkbuf_1
*CAP
1 instr[15] 0.0001684
2 *342:A 0.0001684
3 *342:A *329:A 0
4 ImmExt[15] *342:A 7.67731e-05
*RES
1 instr[15] *342:A 4.84677 
*END

*D_NET *33 0.0005771
*CONN
*P instr[6] I
*I *343:A I *D sky130_fd_sc_hd__clkbuf_1
*CAP
1 instr[6] 0.000205671
2 *343:A 0.000205671
3 *343:A *333:A 8.28789e-05
4 ImmExt[14] *343:A 8.28789e-05
*RES
1 instr[6] *343:A 6.12177 
*END

*D_NET *34 0.000611849
*CONN
*P instr[7] I
*I *333:A I *D sky130_fd_sc_hd__clkbuf_1
*CAP
1 instr[7] 0.000191472
2 *333:A 0.000191472
3 *333:A *319:A0 6.06899e-05
4 *333:A *334:A 8.53361e-05
5 *343:A *333:A 8.28789e-05
*RES
1 instr[7] *333:A 6.37677 
*END

*D_NET *35 0.000399865
*CONN
*P instr[8] I
*I *334:A I *D sky130_fd_sc_hd__clkbuf_1
*CAP
1 instr[8] 0.00015235
2 *334:A 0.00015235
3 *334:A *319:A0 9.82856e-06
4 *333:A *334:A 8.53361e-05
*RES
1 instr[8] *334:A 4.84677 
*END

*D_NET *36 0.000911087
*CONN
*P instr[9] I
*I *335:A I *D sky130_fd_sc_hd__clkbuf_1
*CAP
1 instr[9] 0.000455544
2 *335:A 0.000455544
3 ImmExt[9] *335:A 0
*RES
1 instr[9] *335:A 11.295 
*END

*D_NET *37 0.000111545
*CONN
*I *309:B1_N I *D sky130_fd_sc_hd__a21bo_1
*I *308:X O *D sky130_fd_sc_hd__or3b_1
*CAP
1 *309:B1_N 3.07914e-05
2 *308:X 3.07914e-05
3 *309:B1_N *326:A1 4.99619e-05
*RES
1 *308:X *309:B1_N 3.65 
*END

*D_NET *38 0.000406471
*CONN
*I *311:B1_N I *D sky130_fd_sc_hd__a21bo_1
*I *310:X O *D sky130_fd_sc_hd__or3b_1
*CAP
1 *311:B1_N 0.00012936
2 *310:X 0.00012936
3 *311:B1_N *310:C_N 2.87867e-05
4 *311:B1_N *312:C_N 0.000118964
*RES
1 *310:X *311:B1_N 9.21 
*END

*D_NET *39 0.000689003
*CONN
*I *315:B1 I *D sky130_fd_sc_hd__a21o_1
*I *344:A I *D sky130_fd_sc_hd__buf_1
*I *312:Y O *D sky130_fd_sc_hd__nor3b_1
*CAP
1 *315:B1 8.98208e-05
2 *344:A 0.000182972
3 *312:Y 0
4 *39:4 0.000272793
5 *315:B1 *315:A2 0
6 *315:B1 *54:25 0
7 *315:B1 *71:10 7.23533e-05
8 *344:A *312:A 1.52352e-05
9 *344:A *312:C_N 5.58286e-05
*RES
1 *312:Y *39:4 1.6 
2 *39:4 *344:A 4.75 
3 *39:4 *315:B1 7.235 
*END

*D_NET *40 0.0104007
*CONN
*I *321:S I *D sky130_fd_sc_hd__mux2_1
*I *326:A2 I *D sky130_fd_sc_hd__a21o_1
*I *322:S I *D sky130_fd_sc_hd__mux2_1
*I *318:S I *D sky130_fd_sc_hd__mux2_1
*I *319:S I *D sky130_fd_sc_hd__mux2_1
*I *320:S I *D sky130_fd_sc_hd__mux2_1
*I *324:S I *D sky130_fd_sc_hd__mux2_1
*I *323:S I *D sky130_fd_sc_hd__mux2_1
*I *328:A2 I *D sky130_fd_sc_hd__a21o_1
*I *317:Y O *D sky130_fd_sc_hd__nand2b_4
*CAP
1 *321:S 0.000288696
2 *326:A2 0.000287555
3 *322:S 7.01647e-05
4 *318:S 2.83889e-05
5 *319:S 0
6 *320:S 0
7 *324:S 0.000113965
8 *323:S 4.66386e-05
9 *328:A2 0.000122529
10 *317:Y 0.000144491
11 *40:99 0.000932429
12 *40:51 0.000472664
13 *40:49 0.000448758
14 *40:47 0.000421177
15 *40:37 0.000790093
16 *40:33 0.000836525
17 *40:18 0.0006785
18 *40:10 0.000767503
19 *321:S *345:A 0.00011852
20 *321:S *46:12 3.1835e-05
21 *321:S *67:8 2.37321e-05
22 *322:S *311:A2 7.89767e-05
23 *322:S *66:23 0
24 *323:S *323:A1 2.68464e-05
25 *323:S *66:35 2.49909e-05
26 *324:S *313:A2 6.45236e-05
27 *324:S *314:A2 0
28 *324:S *324:A1 9.36567e-05
29 *324:S *68:10 0.000139933
30 *324:S *69:12 0
31 *326:A2 *308:B 0.000201503
32 *326:A2 *308:C_N 9.43504e-05
33 *326:A2 *309:A1 8.65961e-05
34 *326:A2 *309:A2 1.08758e-05
35 *326:A2 *326:A1 0.000167914
36 *326:A2 *70:27 4.82863e-05
37 *328:A2 *66:23 8.99646e-05
38 *328:A2 *66:25 0.000104287
39 *328:A2 *66:27 9.50342e-06
40 *40:10 *310:A 0.000279787
41 *40:10 *312:C_N 4.43591e-05
42 *40:10 *67:14 2.67022e-05
43 *40:10 *67:16 0.000279787
44 *40:18 *66:23 9.37731e-05
45 *40:33 *312:C_N 1.1392e-05
46 *40:37 *311:A2 9.05299e-05
47 *40:37 *318:A0 0.000116853
48 *40:37 *66:23 0
49 *40:37 *66:25 0
50 *40:37 *66:27 0
51 *40:47 *318:A0 1.70935e-05
52 *40:47 *318:A1 7.35813e-05
53 *40:47 *320:A0 7.40446e-05
54 *40:47 *357:A 0.000296775
55 *40:47 *66:27 0
56 *40:47 *66:31 0
57 *40:49 *320:A0 0.000342174
58 *40:51 *320:A0 0.00012657
59 *40:51 *66:35 0.000379281
60 *40:99 *309:A2 0
61 *40:99 *345:A 9.50342e-06
62 *40:99 *66:19 0
63 *40:99 *66:21 0
64 *40:99 *66:23 0
65 *40:99 *67:8 2.97004e-06
66 *40:99 *67:10 1.7396e-05
67 *40:99 *67:14 0.000251762
*RES
1 *317:Y *40:10 8.28 
2 *40:10 *40:18 7.645 
3 *40:18 *328:A2 6 
4 *40:18 *40:33 7.9 
5 *40:33 *40:37 10.52 
6 *40:37 *40:47 10.12 
7 *40:47 *40:49 3.21 
8 *40:49 *40:51 7.005 
9 *40:51 *323:S 2.395 
10 *40:51 *324:S 8.45 
11 *40:49 *320:S 1.6 
12 *40:47 *319:S 1.6 
13 *40:37 *318:S 2.05 
14 *40:33 *322:S 5.235 
15 *40:10 *40:99 7.5 
16 *40:99 *326:A2 10.41 
17 *40:99 *321:S 8.67 
*END

*D_NET *41 0.000266648
*CONN
*I *326:B1 I *D sky130_fd_sc_hd__a21o_1
*I *325:X O *D sky130_fd_sc_hd__and3b_1
*CAP
1 *326:B1 9.69739e-05
2 *325:X 9.69739e-05
3 *326:B1 *70:27 7.27003e-05
*RES
1 *325:X *326:B1 4.955 
*END

*D_NET *42 0.00126998
*CONN
*I *328:B1 I *D sky130_fd_sc_hd__a21o_1
*I *327:X O *D sky130_fd_sc_hd__and3b_1
*CAP
1 *328:B1 0.000286158
2 *327:X 0.000286158
3 *328:B1 *310:C_N 0.000124895
4 *328:B1 *311:A1 0.00023344
5 *328:B1 *311:A2 0.000244064
6 *328:B1 *352:A 9.52646e-05
*RES
1 *327:X *328:B1 10.505 
*END

*D_NET *43 0.00456328
*CONN
*I *331:A I *D sky130_fd_sc_hd__buf_2
*I *315:A1 I *D sky130_fd_sc_hd__a21o_1
*I *325:A_N I *D sky130_fd_sc_hd__and3b_1
*I *332:X O *D sky130_fd_sc_hd__buf_1
*CAP
1 *331:A 0.000542931
2 *315:A1 0.000351282
3 *325:A_N 0
4 *332:X 0.000692244
5 *43:17 0.00100833
6 *43:8 0.000806357
7 *315:A1 *308:C_N 0
8 *315:A1 *315:A2 0.000587912
9 *315:A1 *54:25 0.000342935
10 *331:A *315:A2 4.38051e-05
11 *331:A *349:A 0.000139933
12 *43:17 *325:C 1.56428e-05
13 *43:17 *70:27 3.19099e-05
*RES
1 *332:X *43:8 12.07 
2 *43:8 *325:A_N 1.6 
3 *43:8 *43:17 3.83 
4 *43:17 *315:A1 11.49 
5 *43:17 *331:A 12.06 
*END

*D_NET *44 0.00219155
*CONN
*I *319:A0 I *D sky130_fd_sc_hd__mux2_1
*I *333:X O *D sky130_fd_sc_hd__clkbuf_1
*CAP
1 *319:A0 0.00061048
2 *333:X 0.00061048
3 *319:A0 *319:A1 4.99619e-05
4 *319:A0 *320:A0 0.00085011
5 *333:A *319:A0 6.06899e-05
6 *334:A *319:A0 9.82856e-06
*RES
1 *333:X *319:A0 18.825 
*END

*D_NET *45 0.00240373
*CONN
*I *320:A0 I *D sky130_fd_sc_hd__mux2_1
*I *334:X O *D sky130_fd_sc_hd__clkbuf_1
*CAP
1 *320:A0 0.000341007
2 *334:X 0.000341007
3 *320:A0 *319:A1 3.90495e-05
4 *320:A0 *66:33 0.000239807
5 *320:A0 *66:35 4.99619e-05
6 *319:A0 *320:A0 0.00085011
7 *40:47 *320:A0 7.40446e-05
8 *40:49 *320:A0 0.000342174
9 *40:51 *320:A0 0.00012657
*RES
1 *334:X *320:A0 14.615 
*END

*D_NET *46 0.00165424
*CONN
*I *321:A0 I *D sky130_fd_sc_hd__mux2_1
*I *309:A2 I *D sky130_fd_sc_hd__a21bo_1
*I *335:X O *D sky130_fd_sc_hd__clkbuf_1
*CAP
1 *321:A0 0
2 *309:A2 0.000209799
3 *335:X 0.000433792
4 *46:12 0.000643591
5 *309:A2 *326:A1 0.000142669
6 *309:A2 *345:A 3.00381e-05
7 *309:A2 *360:A 0
8 *309:A2 *66:8 2.4997e-05
9 *309:A2 *66:19 8.97642e-05
10 *46:12 *360:A 0
11 *46:12 *66:8 3.68769e-05
12 *321:S *46:12 3.1835e-05
13 *326:A2 *309:A2 1.08758e-05
14 *40:99 *309:A2 0
*RES
1 *335:X *46:12 12.635 
2 *46:12 *309:A2 10.175 
3 *46:12 *321:A0 1.6 
*END

*D_NET *47 0.00144988
*CONN
*I *345:A I *D sky130_fd_sc_hd__buf_2
*I *309:X O *D sky130_fd_sc_hd__a21bo_1
*CAP
1 *345:A 0.000361745
2 *309:X 0.000361745
3 *345:A *360:A 0.000568329
4 *309:A2 *345:A 3.00381e-05
5 *321:S *345:A 0.00011852
6 *40:99 *345:A 9.50342e-06
*RES
1 *309:X *345:A 15.6 
*END

*D_NET *48 0.000518884
*CONN
*I *346:A I *D sky130_fd_sc_hd__buf_2
*I *322:X O *D sky130_fd_sc_hd__mux2_1
*CAP
1 *346:A 0.000259442
2 *322:X 0.000259442
3 ImmExt[10] *346:A 0
*RES
1 *322:X *346:A 11.1 
*END

*D_NET *49 0.00100931
*CONN
*I *347:A I *D sky130_fd_sc_hd__buf_2
*I *323:X O *D sky130_fd_sc_hd__mux2_1
*CAP
1 *347:A 0.000353996
2 *323:X 0.000353996
3 *347:A *314:A2 7.06865e-05
4 *347:A *348:A 0.000118527
5 *347:A *69:12 7.75325e-05
6 ImmExt[12] *347:A 3.45679e-05
*RES
1 *323:X *347:A 13.605 
*END

*D_NET *50 0.000268034
*CONN
*I *348:A I *D sky130_fd_sc_hd__buf_2
*I *324:X O *D sky130_fd_sc_hd__mux2_1
*CAP
1 *348:A 7.47537e-05
2 *324:X 7.47537e-05
3 *339:A *348:A 0
4 *347:A *348:A 0.000118527
*RES
1 *324:X *348:A 8.835 
*END

*D_NET *51 0.00120172
*CONN
*I *349:A I *D sky130_fd_sc_hd__buf_2
*I *326:X O *D sky130_fd_sc_hd__a21o_1
*CAP
1 *349:A 0.000506429
2 *326:X 0.000506429
3 *349:A *70:27 4.89295e-05
4 *331:A *349:A 0.000139933
*RES
1 *326:X *349:A 15.6 
*END

*D_NET *52 0.00160957
*CONN
*I *350:A I *D sky130_fd_sc_hd__buf_2
*I *328:X O *D sky130_fd_sc_hd__a21o_1
*CAP
1 *350:A 0.000585696
2 *328:X 0.000585696
3 *350:A *352:A 0.000438179
*RES
1 *328:X *350:A 15.495 
*END

*D_NET *53 0.000176582
*CONN
*I *351:A I *D sky130_fd_sc_hd__buf_2
*I *329:X O *D sky130_fd_sc_hd__clkbuf_1
*CAP
1 *351:A 8.8291e-05
2 *329:X 8.8291e-05
*RES
1 *329:X *351:A 4.61 
*END

*D_NET *54 0.00655817
*CONN
*I *308:A I *D sky130_fd_sc_hd__or3b_1
*I *310:A I *D sky130_fd_sc_hd__or3b_1
*I *317:B I *D sky130_fd_sc_hd__nand2b_4
*I *327:C I *D sky130_fd_sc_hd__and3b_1
*I *312:A I *D sky130_fd_sc_hd__nor3b_1
*I *325:C I *D sky130_fd_sc_hd__and3b_1
*I *336:X O *D sky130_fd_sc_hd__clkbuf_2
*CAP
1 *308:A 0.00044025
2 *310:A 6.7076e-05
3 *317:B 0
4 *327:C 0
5 *312:A 0.00020081
6 *325:C 9.84208e-05
7 *336:X 0.000782044
8 *54:59 0.000199111
9 *54:46 0.000399947
10 *54:25 0.000805937
11 *54:21 0.000873417
12 *54:6 0.000976417
13 *308:A *67:14 0
14 *310:A *312:C_N 0.000161837
15 *310:A *67:22 0
16 *312:A *312:C_N 0.000154132
17 *312:A *64:8 8.53113e-06
18 *325:C *315:A2 9.08126e-05
19 *54:25 *315:A2 2.42236e-05
20 *54:46 *311:A1 0.0001249
21 *54:46 *327:A_N 4.82863e-05
22 *54:46 *64:8 9.30787e-05
23 *54:46 *64:14 8.53113e-06
24 *54:46 *67:32 0.000197826
25 *54:46 *71:16 0.000110676
26 *54:59 *310:C_N 0
27 *54:59 *311:A1 3.83041e-05
28 *54:59 *67:83 0
29 *315:A1 *54:25 0.000342935
30 *315:B1 *54:25 0
31 *344:A *312:A 1.52352e-05
32 *40:10 *310:A 0.000279787
33 *43:17 *325:C 1.56428e-05
*RES
1 *336:X *54:6 12.4 
2 *54:6 *325:C 7.175 
3 *54:6 *54:21 1.14 
4 *54:21 *54:25 8.8625 
5 *54:25 *312:A 6.9825 
6 *54:25 *54:46 8.0975 
7 *54:46 *327:C 1.6 
8 *54:46 *54:59 6.085 
9 *54:59 *317:B 1.6 
10 *54:59 *310:A 4.48 
11 *54:21 *308:A 11.825 
*END

*D_NET *55 0.00138017
*CONN
*I *352:A I *D sky130_fd_sc_hd__buf_2
*I *311:X O *D sky130_fd_sc_hd__a21bo_1
*CAP
1 *352:A 0.000344537
2 *311:X 0.000344537
3 *352:A *311:A2 0.00015765
4 *328:B1 *352:A 9.52646e-05
5 *350:A *352:A 0.000438179
*RES
1 *311:X *352:A 12.29 
*END

*D_NET *56 0.00149996
*CONN
*I *353:A I *D sky130_fd_sc_hd__buf_2
*I *313:X O *D sky130_fd_sc_hd__a21o_1
*CAP
1 *353:A 0.000692513
2 *313:X 0.000692513
3 *353:A *314:A2 4.89295e-05
4 *353:A *314:B1 6.60042e-05
*RES
1 *313:X *353:A 14.015 
*END

*D_NET *57 0.00129708
*CONN
*I *354:A I *D sky130_fd_sc_hd__buf_2
*I *314:X O *D sky130_fd_sc_hd__a21o_1
*CAP
1 *354:A 0.00064854
2 *314:X 0.00064854
3 *354:A *67:58 0
*RES
1 *314:X *354:A 16.965 
*END

*D_NET *58 0.0012513
*CONN
*I *355:A I *D sky130_fd_sc_hd__buf_2
*I *315:X O *D sky130_fd_sc_hd__a21o_1
*CAP
1 *355:A 0.000625652
2 *315:X 0.000625652
3 *355:A *315:A2 0
*RES
1 *315:X *355:A 16.62 
*END

*D_NET *59 0.000975199
*CONN
*I *356:A I *D sky130_fd_sc_hd__buf_2
*I *316:X O *D sky130_fd_sc_hd__a21o_1
*CAP
1 *356:A 0.0004876
2 *316:X 0.0004876
*RES
1 *316:X *356:A 10.55 
*END

*D_NET *60 0.00123051
*CONN
*I *357:A I *D sky130_fd_sc_hd__buf_2
*I *318:X O *D sky130_fd_sc_hd__mux2_1
*CAP
1 *357:A 0.000442724
2 *318:X 0.000442724
3 *357:A *318:A1 4.82863e-05
4 *357:A *358:A 0
5 *357:A *66:31 0
6 *40:47 *357:A 0.000296775
*RES
1 *318:X *357:A 15.405 
*END

*D_NET *61 0.000568047
*CONN
*I *358:A I *D sky130_fd_sc_hd__buf_2
*I *319:X O *D sky130_fd_sc_hd__mux2_1
*CAP
1 *358:A 0.00025988
2 *319:X 0.00025988
3 *358:A *359:A 0
4 *358:A *66:33 4.82863e-05
5 *357:A *358:A 0
*RES
1 *319:X *358:A 11.325 
*END

*D_NET *62 0.00044326
*CONN
*I *359:A I *D sky130_fd_sc_hd__buf_2
*I *320:X O *D sky130_fd_sc_hd__mux2_1
*CAP
1 *359:A 0.00022163
2 *320:X 0.00022163
3 *358:A *359:A 0
*RES
1 *320:X *359:A 10.875 
*END

*D_NET *63 0.00119651
*CONN
*I *360:A I *D sky130_fd_sc_hd__buf_2
*I *321:X O *D sky130_fd_sc_hd__mux2_1
*CAP
1 *360:A 0.000303534
2 *321:X 0.000303534
3 *360:A *66:8 0
4 ImmExt[9] *360:A 2.11084e-05
5 *309:A2 *360:A 0
6 *345:A *360:A 0.000568329
7 *46:12 *360:A 0
*RES
1 *321:X *360:A 14.475 
*END

*D_NET *64 0.00224839
*CONN
*I *316:B1 I *D sky130_fd_sc_hd__a21o_1
*I *314:B1 I *D sky130_fd_sc_hd__a21o_1
*I *313:B1 I *D sky130_fd_sc_hd__a21o_1
*I *344:X O *D sky130_fd_sc_hd__buf_1
*CAP
1 *316:B1 0.000161083
2 *314:B1 0.000100382
3 *313:B1 0
4 *344:X 4.53848e-05
5 *64:14 0.00032196
6 *64:8 0.000428045
7 *314:B1 *314:A1 0.000161985
8 *314:B1 *314:A2 8.52845e-05
9 *316:B1 *316:A1 8.51862e-05
10 *316:B1 *67:32 3.57349e-05
11 *316:B1 *67:34 0.000186405
12 *316:B1 *71:16 7.48312e-05
13 *64:8 *67:58 2.07184e-05
14 *64:14 *313:A1 2.05056e-05
15 *64:14 *314:A2 4.1652e-06
16 *64:14 *67:58 0.000340573
17 *312:A *64:8 8.53113e-06
18 *353:A *314:B1 6.60042e-05
19 *54:46 *64:8 9.30787e-05
20 *54:46 *64:14 8.53113e-06
*RES
1 *344:X *64:8 4.725 
2 *64:8 *64:14 6.89 
3 *64:14 *313:B1 1.6 
4 *64:14 *314:B1 4.495 
5 *64:8 *316:B1 7.515 
*END

*D_NET *65 0.0025004
*CONN
*I *322:A0 I *D sky130_fd_sc_hd__mux2_1
*I *311:A2 I *D sky130_fd_sc_hd__a21bo_1
*I *337:X O *D sky130_fd_sc_hd__clkbuf_1
*CAP
1 *322:A0 0
2 *311:A2 0.000634243
3 *337:X 0.000330349
4 *65:8 0.000964592
5 *322:S *311:A2 7.89767e-05
6 *328:B1 *311:A2 0.000244064
7 *352:A *311:A2 0.00015765
8 *40:37 *311:A2 9.05299e-05
*RES
1 *337:X *65:8 6.205 
2 *65:8 *311:A2 15.77 
3 *65:8 *322:A0 1.6 
*END

*D_NET *66 0.0111216
*CONN
*I *326:A1 I *D sky130_fd_sc_hd__a21o_1
*I *322:A1 I *D sky130_fd_sc_hd__mux2_1
*I *312:C_N I *D sky130_fd_sc_hd__nor3b_1
*I *328:A1 I *D sky130_fd_sc_hd__a21o_1
*I *318:A1 I *D sky130_fd_sc_hd__mux2_1
*I *319:A1 I *D sky130_fd_sc_hd__mux2_1
*I *320:A1 I *D sky130_fd_sc_hd__mux2_1
*I *324:A1 I *D sky130_fd_sc_hd__mux2_1
*I *323:A1 I *D sky130_fd_sc_hd__mux2_1
*I *321:A1 I *D sky130_fd_sc_hd__mux2_1
*I *330:X O *D sky130_fd_sc_hd__buf_2
*CAP
1 *326:A1 0.000477514
2 *322:A1 0.00026571
3 *312:C_N 0.000901455
4 *328:A1 0
5 *318:A1 0.00022942
6 *319:A1 0.000100366
7 *320:A1 0
8 *324:A1 0.0001303
9 *323:A1 3.90127e-05
10 *321:A1 3.47069e-05
11 *330:X 7.52471e-05
12 *66:35 0.000502879
13 *66:33 0.000419605
14 *66:31 0.000455171
15 *66:27 0.000913812
16 *66:25 0.000486707
17 *66:23 0.00110855
18 *66:21 0.000745852
19 *66:19 0.000941473
20 *66:8 0.000229783
21 *312:C_N *310:C_N 0
22 *312:C_N *311:A1 7.60965e-05
23 *312:C_N *67:16 2.10134e-05
24 *312:C_N *67:22 6.19657e-05
25 *312:C_N *67:32 8.65961e-05
26 *323:A1 *323:A0 0.000122152
27 *324:A1 *314:A2 0
28 *324:A1 *69:12 2.0851e-06
29 *326:A1 *308:C_N 0.00012657
30 *326:A1 *309:A1 5.05521e-05
31 *326:A1 *70:27 1.5567e-05
32 *66:27 *318:A0 0
33 *66:35 *323:A0 7.14699e-05
34 *309:A2 *326:A1 0.000142669
35 *309:A2 *66:8 2.4997e-05
36 *309:A2 *66:19 8.97642e-05
37 *309:B1_N *326:A1 4.99619e-05
38 *310:A *312:C_N 0.000161837
39 *311:B1_N *312:C_N 0.000118964
40 *312:A *312:C_N 0.000154132
41 *319:A0 *319:A1 4.99619e-05
42 *320:A0 *319:A1 3.90495e-05
43 *320:A0 *66:33 0.000239807
44 *320:A0 *66:35 4.99619e-05
45 *322:S *66:23 0
46 *323:S *323:A1 2.68464e-05
47 *323:S *66:35 2.49909e-05
48 *324:S *324:A1 9.36567e-05
49 *326:A2 *326:A1 0.000167914
50 *328:A2 *66:23 8.99646e-05
51 *328:A2 *66:25 0.000104287
52 *328:A2 *66:27 9.50342e-06
53 *344:A *312:C_N 5.58286e-05
54 *357:A *318:A1 4.82863e-05
55 *357:A *66:31 0
56 *358:A *66:33 4.82863e-05
57 *360:A *66:8 0
58 *40:10 *312:C_N 4.43591e-05
59 *40:18 *66:23 9.37731e-05
60 *40:33 *312:C_N 1.1392e-05
61 *40:37 *66:23 0
62 *40:37 *66:25 0
63 *40:37 *66:27 0
64 *40:47 *318:A1 7.35813e-05
65 *40:47 *66:27 0
66 *40:47 *66:31 0
67 *40:51 *66:35 0.000379281
68 *40:99 *66:19 0
69 *40:99 *66:21 0
70 *40:99 *66:23 0
71 *46:12 *66:8 3.68769e-05
*RES
1 *330:X *66:8 5.235 
2 *66:8 *321:A1 4.05 
3 *66:8 *66:19 2.4 
4 *66:19 *66:21 5.715 
5 *66:21 *66:23 2.91 
6 *66:23 *66:25 1.38 
7 *66:25 *66:27 6.735 
8 *66:27 *66:31 6.185 
9 *66:31 *66:33 2.175 
10 *66:33 *66:35 6.66 
11 *66:35 *323:A1 2.74 
12 *66:35 *324:A1 7.52 
13 *66:33 *320:A1 1.6 
14 *66:31 *319:A1 3.1 
15 *66:27 *318:A1 7.155 
16 *66:25 *328:A1 3.6 
17 *66:23 *312:C_N 26.345 
18 *66:21 *322:A1 7.5 
19 *66:19 *326:A1 12.33 
*END

*D_NET *67 0.00735027
*CONN
*I *308:B I *D sky130_fd_sc_hd__or3b_1
*I *309:A1 I *D sky130_fd_sc_hd__a21bo_1
*I *310:B I *D sky130_fd_sc_hd__or3b_1
*I *311:A1 I *D sky130_fd_sc_hd__a21bo_1
*I *327:A_N I *D sky130_fd_sc_hd__and3b_1
*I *317:A_N I *D sky130_fd_sc_hd__nand2b_4
*I *313:A1 I *D sky130_fd_sc_hd__a21o_1
*I *314:A1 I *D sky130_fd_sc_hd__a21o_1
*I *312:B I *D sky130_fd_sc_hd__nor3b_1
*I *316:A1 I *D sky130_fd_sc_hd__a21o_1
*I *331:X O *D sky130_fd_sc_hd__buf_2
*CAP
1 *308:B 0.000128302
2 *309:A1 1.71066e-05
3 *310:B 0
4 *311:A1 0.000172132
5 *327:A_N 9.83992e-06
6 *317:A_N 0
7 *313:A1 6.8086e-05
8 *314:A1 0.000104441
9 *312:B 8.75809e-05
10 *316:A1 6.05244e-05
11 *331:X 4.86303e-05
12 *67:83 0.000353996
13 *67:58 0.000351454
14 *67:34 0.000278868
15 *67:32 0.000610939
16 *67:22 0.000428454
17 *67:16 0.000525848
18 *67:14 0.000581333
19 *67:10 0.000409068
20 *67:8 0.000214179
21 *311:A1 *310:C_N 3.23663e-05
22 *311:A1 *71:16 4.85494e-05
23 *312:B *71:10 0.000114326
24 *327:A_N *71:16 2.11084e-05
25 *67:32 *71:16 2.60185e-06
26 *308:A *67:14 0
27 *310:A *67:22 0
28 *312:C_N *311:A1 7.60965e-05
29 *312:C_N *67:16 2.10134e-05
30 *312:C_N *67:22 6.19657e-05
31 *312:C_N *67:32 8.65961e-05
32 *314:B1 *314:A1 0.000161985
33 *316:B1 *316:A1 8.51862e-05
34 *316:B1 *67:32 3.57349e-05
35 *316:B1 *67:34 0.000186405
36 *321:S *67:8 2.37321e-05
37 *326:A1 *309:A1 5.05521e-05
38 *326:A2 *308:B 0.000201503
39 *326:A2 *309:A1 8.65961e-05
40 *328:B1 *311:A1 0.00023344
41 *354:A *67:58 0
42 *40:10 *67:14 2.67022e-05
43 *40:10 *67:16 0.000279787
44 *40:99 *67:8 2.97004e-06