*SPEF "ieee 1481-1999"
*DESIGN "Register_file"
*DATE "20:48:39 Tuesday November 04, 2025"
*VENDOR "The OpenROAD Project"
*PROGRAM "OpenROAD"
*VERSION "24Q3-9297-g8daed51a74"
*DESIGN_FLOW "NAME_SCOPE LOCAL" "PIN_CAP NONE"
*DIVIDER /
*DELIMITER :
*BUS_DELIMITER []
*T_UNIT 1 NS
*C_UNIT 1 PF
*R_UNIT 1 OHM
*L_UNIT 1 HENRY

*NAME_MAP
*1 A1[0]
*2 A1[1]
*3 A1[2]
*4 A2[0]
*5 A2[1]
*6 A2[2]
*7 A3[0]
*8 A3[1]
*9 A3[2]
*10 net27
*11 net28
*12 net29
*13 net30
*14 net31
*15 net32
*16 net33
*17 net34
*18 net35
*19 net36
*20 net37
*21 net38
*22 net39
*23 net40
*24 net41
*25 net42
*26 net43
*27 net44
*28 net45
*29 net46
*30 net47
*31 net48
*32 net49
*33 net50
*34 net51
*35 net52
*36 net53
*37 net54
*38 net55
*39 net56
*40 net57
*41 net58
*42 RegWrite
*43 WD3[0]
*44 WD3[10]
*45 WD3[11]
*46 WD3[12]
*47 WD3[13]
*48 WD3[14]
*49 WD3[15]
*50 WD3[1]
*51 WD3[2]
*52 WD3[3]
*53 WD3[4]
*54 WD3[5]
*55 WD3[6]
*56 WD3[7]
*57 WD3[8]
*58 WD3[9]
*59 _000_
*60 _001_
*61 _002_
*62 _003_
*63 _004_
*64 _005_
*65 _006_
*66 _007_
*67 _008_
*68 _009_
*69 _010_
*70 _011_
*71 RD1[0]
*72 net26
*73 net25
*74 net24
*75 _016_
*76 _017_
*77 net23
*78 _019_
*79 net22
*80 _021_
*81 _022_
*82 net21
*83 _024_
*84 _025_
*85 net20
*86 _027_
*87 _028_
*88 net19
*89 net18
*90 _031_
*91 _032_
*92 net17
*93 _034_
*94 _035_
*95 _036_
*96 net16
*97 net15
*98 _039_
*99 _040_
*100 net14
*101 _042_
*102 _043_
*103 _044_
*104 _045_
*105 _046_
*106 _047_
*107 _048_
*108 _049_
*109 _050_
*110 _051_
*111 _052_
*112 _053_
*113 _054_
*114 _055_
*115 _056_
*116 _057_
*117 _058_
*118 _059_
*119 _060_
*120 _061_
*121 _062_
*122 _063_
*123 _064_
*124 _065_
*125 _066_
*126 _067_
*127 _068_
*128 _069_
*129 _070_
*130 _071_
*131 _072_
*132 _073_
*133 _074_
*134 _075_
*135 _076_
*136 _077_
*137 _078_
*138 _079_
*139 _080_
*140 _081_
*141 _082_
*142 _083_
*143 _084_
*144 _085_
*145 _086_
*146 _087_
*147 _088_
*148 _089_
*149 _090_
*150 _091_
*151 _092_
*152 _093_
*153 _094_
*154 _095_
*155 _096_
*156 _097_
*157 _098_
*158 _099_
*159 _100_
*160 _101_
*161 _102_
*162 _103_
*163 _104_
*164 _105_
*165 _106_
*166 _107_
*167 _108_
*168 _109_
*169 _110_
*170 net13
*171 net12
*172 _113_
*173 net11
*174 net10
*175 net9
*176 net8
*177 _118_
*178 _119_
*179 net7
*180 net6
*181 _122_
*182 net5
*183 _124_
*184 _125_
*185 net4
*186 net3
*187 net2
*188 _129_
*189 _130_
*190 net1
*191 _132_
*192 _133_
*193 _134_
*194 _135_
*195 _136_
*196 _137_
*197 _138_
*198 _139_
*199 _140_
*200 _141_
*201 _142_
*203 _144_
*204 _145_
*205 _146_
*206 _147_
*207 _148_
*208 _149_
*209 _150_
*210 _151_
*211 _152_
*212 _153_
*214 _155_
*215 _156_
*216 _157_
*217 _158_
*218 _159_
*219 _160_
*220 _161_
*221 _162_
*222 _163_
*223 _164_
*224 _165_
*225 _166_
*226 _167_
*227 _168_
*228 _169_
*229 _170_
*230 _171_
*231 _172_
*232 _173_
*233 _174_
*234 _175_
*235 _176_
*236 _177_
*237 _178_
*238 _179_
*239 _180_
*240 _181_
*241 _182_
*242 _183_
*243 _184_
*244 _185_
*245 _186_
*246 _187_
*247 _188_
*248 _189_
*249 _190_
*250 _191_
*251 _192_
*252 clk
*253 reg_array\[1\]\[0\]
*254 reg_array\[1\]\[10\]
*255 reg_array\[1\]\[11\]
*256 reg_array\[1\]\[12\]
*257 reg_array\[1\]\[13\]
*258 reg_array\[1\]\[14\]
*259 reg_array\[1\]\[15\]
*260 reg_array\[1\]\[1\]
*261 reg_array\[1\]\[2\]
*262 reg_array\[1\]\[3\]
*263 reg_array\[1\]\[4\]
*264 reg_array\[1\]\[5\]
*265 reg_array\[1\]\[6\]
*266 reg_array\[1\]\[7\]
*267 reg_array\[1\]\[8\]
*268 reg_array\[1\]\[9\]
*269 reg_array\[2\]\[0\]
*270 reg_array\[2\]\[10\]
*271 reg_array\[2\]\[11\]
*272 reg_array\[2\]\[12\]
*273 reg_array\[2\]\[13\]
*274 reg_array\[2\]\[14\]
*275 reg_array\[2\]\[15\]
*276 reg_array\[2\]\[1\]
*277 reg_array\[2\]\[2\]
*278 reg_array\[2\]\[3\]
*279 reg_array\[2\]\[4\]
*280 reg_array\[2\]\[5\]
*281 reg_array\[2\]\[6\]
*282 reg_array\[2\]\[7\]
*283 reg_array\[2\]\[8\]
*284 reg_array\[2\]\[9\]
*285 reg_array\[3\]\[0\]
*286 reg_array\[3\]\[10\]
*287 reg_array\[3\]\[11\]
*288 reg_array\[3\]\[12\]
*289 reg_array\[3\]\[13\]
*290 reg_array\[3\]\[14\]
*291 reg_array\[3\]\[15\]
*292 reg_array\[3\]\[1\]
*293 reg_array\[3\]\[2\]
*294 reg_array\[3\]\[3\]
*295 reg_array\[3\]\[4\]
*296 reg_array\[3\]\[5\]
*297 reg_array\[3\]\[6\]
*298 reg_array\[3\]\[7\]
*299 reg_array\[3\]\[8\]
*300 reg_array\[3\]\[9\]
*301 reg_array\[4\]\[0\]
*302 reg_array\[4\]\[10\]
*303 reg_array\[4\]\[11\]
*304 reg_array\[4\]\[12\]
*305 reg_array\[4\]\[13\]
*306 reg_array\[4\]\[14\]
*307 reg_array\[4\]\[15\]
*308 reg_array\[4\]\[1\]
*309 reg_array\[4\]\[2\]
*310 reg_array\[4\]\[3\]
*311 reg_array\[4\]\[4\]
*312 reg_array\[4\]\[5\]
*313 reg_array\[4\]\[6\]
*314 reg_array\[4\]\[7\]
*315 reg_array\[4\]\[8\]
*316 reg_array\[4\]\[9\]
*317 reg_array\[5\]\[0\]
*318 reg_array\[5\]\[10\]
*319 reg_array\[5\]\[11\]
*320 reg_array\[5\]\[12\]
*321 reg_array\[5\]\[13\]
*322 reg_array\[5\]\[14\]
*323 reg_array\[5\]\[15\]
*324 reg_array\[5\]\[1\]
*325 reg_array\[5\]\[2\]
*326 reg_array\[5\]\[3\]
*327 reg_array\[5\]\[4\]
*328 reg_array\[5\]\[5\]
*329 reg_array\[5\]\[6\]
*330 reg_array\[5\]\[7\]
*331 reg_array\[5\]\[8\]
*332 reg_array\[5\]\[9\]
*333 reg_array\[6\]\[0\]
*334 reg_array\[6\]\[10\]
*335 reg_array\[6\]\[11\]
*336 reg_array\[6\]\[12\]
*337 reg_array\[6\]\[13\]
*338 reg_array\[6\]\[14\]
*339 reg_array\[6\]\[15\]
*340 reg_array\[6\]\[1\]
*341 reg_array\[6\]\[2\]
*342 reg_array\[6\]\[3\]
*343 reg_array\[6\]\[4\]
*344 reg_array\[6\]\[5\]
*345 reg_array\[6\]\[6\]
*346 reg_array\[6\]\[7\]
*347 reg_array\[6\]\[8\]
*348 reg_array\[6\]\[9\]
*349 reg_array\[7\]\[0\]
*350 reg_array\[7\]\[10\]
*351 reg_array\[7\]\[11\]
*352 reg_array\[7\]\[12\]
*353 reg_array\[7\]\[13\]
*354 reg_array\[7\]\[14\]
*355 reg_array\[7\]\[15\]
*356 reg_array\[7\]\[1\]
*357 reg_array\[7\]\[2\]
*358 reg_array\[7\]\[3\]
*359 reg_array\[7\]\[4\]
*360 reg_array\[7\]\[5\]
*361 reg_array\[7\]\[6\]
*362 reg_array\[7\]\[7\]
*363 reg_array\[7\]\[8\]
*364 reg_array\[7\]\[9\]
*365 RD1[10]
*366 RD1[11]
*367 RD1[12]
*368 RD1[13]
*369 RD1[14]
*370 RD1[15]
*371 RD1[1]
*372 RD1[2]
*373 RD1[3]
*374 RD1[4]
*375 RD1[5]
*376 RD1[6]
*377 RD1[7]
*378 RD1[8]
*379 RD1[9]
*380 RD2[0]
*381 RD2[10]
*382 RD2[11]
*383 RD2[12]
*384 RD2[13]
*385 RD2[14]
*386 RD2[15]
*387 RD2[1]
*388 RD2[2]
*389 RD2[3]
*390 RD2[4]
*391 RD2[5]
*392 RD2[6]
*393 RD2[7]
*394 RD2[8]
*395 RD2[9]
*396 net69
*397 net72
*398 net76
*399 clknet_0_clk
*400 net63
*401 net64
*402 net65
*403 net66
*404 net67
*405 net68
*406 net70
*407 net71
*408 net73
*409 net74
*410 net75
*411 net77
*412 net78
*413 clknet_3_0__leaf_clk
*414 clknet_3_1__leaf_clk
*415 clknet_3_2__leaf_clk
*416 clknet_3_3__leaf_clk
*417 clknet_3_4__leaf_clk
*418 clknet_3_5__leaf_clk
*419 clknet_3_6__leaf_clk
*420 clknet_3_7__leaf_clk
*421 _193_
*422 _194_
*423 _195_
*424 _196_
*425 _197_
*426 _198_
*427 _199_
*428 _200_
*429 _201_
*430 _202_
*431 _203_
*432 _204_
*433 TAP_TAPCELL_ROW_5_28
*434 TAP_TAPCELL_ROW_5_27
*435 TAP_TAPCELL_ROW_4_26
*436 TAP_TAPCELL_ROW_4_25
*437 _209_
*438 _210_
*439 TAP_TAPCELL_ROW_4_24
*440 _212_
*441 TAP_TAPCELL_ROW_4_23
*442 _214_
*443 _215_
*444 TAP_TAPCELL_ROW_4_22
*445 _217_
*446 _218_
*447 TAP_TAPCELL_ROW_3_21
*448 _220_
*449 _221_
*450 _222_
*451 TAP_TAPCELL_ROW_3_20
*452 TAP_TAPCELL_ROW_3_19
*453 _225_
*454 _226_
*455 TAP_TAPCELL_ROW_3_18
*456 _228_
*457 _229_
*458 _230_
*459 TAP_TAPCELL_ROW_2_17
*460 TAP_TAPCELL_ROW_2_16
*461 _233_
*462 _234_
*463 _235_
*464 TAP_TAPCELL_ROW_2_15
*465 _237_
*466 _238_
*467 _239_
*468 _240_
*469 _241_
*470 _242_
*471 _243_
*472 _244_
*473 _245_
*474 _246_
*475 _247_
*476 _248_
*477 _249_
*478 _250_
*479 _251_
*480 _252_
*481 _253_
*482 _254_
*483 _255_
*484 _256_
*485 _257_
*486 _258_
*487 _259_
*488 _260_
*489 _261_
*490 _262_
*491 _263_
*492 _264_
*493 _265_
*494 _266_
*495 _267_
*496 _268_
*497 _269_
*498 _270_
*499 _271_
*500 _272_
*501 _273_
*502 _274_
*503 _275_
*504 _276_
*505 _277_
*506 _278_
*507 _279_
*508 _280_
*509 _281_
*510 _282_
*511 _283_
*512 _284_
*513 _285_
*514 _286_
*515 _287_
*516 _288_
*517 _289_
*518 _290_
*519 _291_
*520 _292_
*521 _293_
*522 _294_
*523 _295_
*524 _296_
*525 _297_
*526 _298_
*527 _299_
*528 _300_
*529 _301_
*530 _302_
*531 _303_
*532 _304_
*533 _305_
*534 _306_
*535 _307_
*536 _308_
*537 _309_
*538 _310_
*539 _311_
*540 _312_
*541 _313_
*542 _314_
*543 _315_
*544 _316_
*545 _317_
*546 _318_
*547 _319_
*548 TAP_TAPCELL_ROW_2_14
*549 TAP_TAPCELL_ROW_2_13
*550 _322_
*551 TAP_TAPCELL_ROW_1_12
*552 TAP_TAPCELL_ROW_1_11
*553 TAP_TAPCELL_ROW_1_10
*554 TAP_TAPCELL_ROW_1_9
*555 _327_
*556 _328_
*557 TAP_TAPCELL_ROW_0_8
*558 TAP_TAPCELL_ROW_0_7
*559 _331_
*560 TAP_TAPCELL_ROW_0_6
*561 _333_
*562 _334_
*563 TAP_TAPCELL_ROW_0_5
*564 TAP_TAPCELL_ROW_0_4
*565 TAP_TAPCELL_ROW_0_3
*566 _338_
*567 _339_
*568 _340_
*569 TAP_TAPCELL_ROW_0_2
*570 _342_
*571 _343_
*572 _344_
*573 _345_
*574 _346_
*575 _347_
*576 _348_
*577 _349_
*578 _350_
*579 _351_
*580 _352_
*581 _353_
*582 _354_
*583 _355_
*584 TAP_TAPCELL_ROW_0_1
*585 _357_
*586 _358_
*587 _359_
*588 _360_
*589 _361_
*590 _362_
*591 _363_
*592 _364_
*593 _365_
*594 _366_
*595 _367_
*596 _368_
*597 TAP_TAPCELL_ROW_0_0
*598 _370_
*599 _371_
*600 _372_
*601 _373_
*602 _374_
*603 _375_
*604 _376_
*605 _377_
*606 _378_
*607 _379_
*608 _380_
*609 _381_
*610 _382_
*611 _383_
*612 _384_
*613 _385_
*614 _386_
*615 _387_
*616 _388_
*617 _389_
*618 _390_
*619 _391_
*620 _392_
*621 _393_
*622 _394_
*623 _395_
*624 _396_
*625 _397_
*626 _398_
*627 _399_
*628 _400_
*629 _401_
*630 _402_
*631 _403_
*632 _404_
*633 _405_
*634 _406_
*635 _407_
*636 _408_
*637 _409_
*638 _410_
*639 _411_
*640 _412_
*641 _413_
*642 _414_
*643 _415_
*644 _416_
*645 _417_
*646 reg_array\[1\]\[0\]\$_DFFE_PP_
*647 reg_array\[1\]\[10\]\$_DFFE_PP_
*648 reg_array\[1\]\[11\]\$_DFFE_PP_
*649 reg_array\[1\]\[12\]\$_DFFE_PP_
*650 reg_array\[1\]\[13\]\$_DFFE_PP_
*651 reg_array\[1\]\[14\]\$_DFFE_PP_
*652 reg_array\[1\]\[15\]\$_DFFE_PP_
*653 reg_array\[1\]\[1\]\$_DFFE_PP_
*654 reg_array\[1\]\[2\]\$_DFFE_PP_
*655 reg_array\[1\]\[3\]\$_DFFE_PP_
*656 reg_array\[1\]\[4\]\$_DFFE_PP_
*657 reg_array\[1\]\[5\]\$_DFFE_PP_
*658 reg_array\[1\]\[6\]\$_DFFE_PP_
*659 reg_array\[1\]\[7\]\$_DFFE_PP_
*660 reg_array\[1\]\[8\]\$_DFFE_PP_
*661 reg_array\[1\]\[9\]\$_DFFE_PP_
*662 reg_array\[2\]\[0\]\$_DFFE_PP_
*663 reg_array\[2\]\[10\]\$_DFFE_PP_
*664 reg_array\[2\]\[11\]\$_DFFE_PP_
*665 reg_array\[2\]\[12\]\$_DFFE_PP_
*666 reg_array\[2\]\[13\]\$_DFFE_PP_
*667 reg_array\[2\]\[14\]\$_DFFE_PP_
*668 reg_array\[2\]\[15\]\$_DFFE_PP_
*669 reg_array\[2\]\[1\]\$_DFFE_PP_
*670 reg_array\[2\]\[2\]\$_DFFE_PP_
*671 reg_array\[2\]\[3\]\$_DFFE_PP_
*672 reg_array\[2\]\[4\]\$_DFFE_PP_
*673 reg_array\[2\]\[5\]\$_DFFE_PP_
*674 reg_array\[2\]\[6\]\$_DFFE_PP_
*675 reg_array\[2\]\[7\]\$_DFFE_PP_
*676 reg_array\[2\]\[8\]\$_DFFE_PP_
*677 reg_array\[2\]\[9\]\$_DFFE_PP_
*678 reg_array\[3\]\[0\]\$_DFFE_PP_
*679 reg_array\[3\]\[10\]\$_DFFE_PP_
*680 reg_array\[3\]\[11\]\$_DFFE_PP_
*681 reg_array\[3\]\[12\]\$_DFFE_PP_
*682 reg_array\[3\]\[13\]\$_DFFE_PP_
*683 reg_array\[3\]\[14\]\$_DFFE_PP_
*684 reg_array\[3\]\[15\]\$_DFFE_PP_
*685 reg_array\[3\]\[1\]\$_DFFE_PP_
*686 reg_array\[3\]\[2\]\$_DFFE_PP_
*687 reg_array\[3\]\[3\]\$_DFFE_PP_
*688 reg_array\[3\]\[4\]\$_DFFE_PP_
*689 reg_array\[3\]\[5\]\$_DFFE_PP_
*690 reg_array\[3\]\[6\]\$_DFFE_PP_
*691 reg_array\[3\]\[7\]\$_DFFE_PP_
*692 reg_array\[3\]\[8\]\$_DFFE_PP_
*693 reg_array\[3\]\[9\]\$_DFFE_PP_
*694 reg_array\[4\]\[0\]\$_DFFE_PP_
*695 reg_array\[4\]\[10\]\$_DFFE_PP_
*696 reg_array\[4\]\[11\]\$_DFFE_PP_
*697 reg_array\[4\]\[12\]\$_DFFE_PP_
*698 reg_array\[4\]\[13\]\$_DFFE_PP_
*699 reg_array\[4\]\[14\]\$_DFFE_PP_
*700 reg_array\[4\]\[15\]\$_DFFE_PP_
*701 reg_array\[4\]\[1\]\$_DFFE_PP_
*702 reg_array\[4\]\[2\]\$_DFFE_PP_
*703 reg_array\[4\]\[3\]\$_DFFE_PP_
*704 reg_array\[4\]\[4\]\$_DFFE_PP_
*705 reg_array\[4\]\[5\]\$_DFFE_PP_
*706 reg_array\[4\]\[6\]\$_DFFE_PP_
*707 reg_array\[4\]\[7\]\$_DFFE_PP_
*708 reg_array\[4\]\[8\]\$_DFFE_PP_
*709 reg_array\[4\]\[9\]\$_DFFE_PP_
*710 reg_array\[5\]\[0\]\$_DFFE_PP_
*711 reg_array\[5\]\[10\]\$_DFFE_PP_
*712 reg_array\[5\]\[11\]\$_DFFE_PP_
*713 reg_array\[5\]\[12\]\$_DFFE_PP_
*714 reg_array\[5\]\[13\]\$_DFFE_PP_
*715 reg_array\[5\]\[14\]\$_DFFE_PP_
*716 reg_array\[5\]\[15\]\$_DFFE_PP_
*717 reg_array\[5\]\[1\]\$_DFFE_PP_
*718 reg_array\[5\]\[2\]\$_DFFE_PP_
*719 reg_array\[5\]\[3\]\$_DFFE_PP_
*720 reg_array\[5\]\[4\]\$_DFFE_PP_
*721 reg_array\[5\]\[5\]\$_DFFE_PP_
*722 reg_array\[5\]\[6\]\$_DFFE_PP_
*723 reg_array\[5\]\[7\]\$_DFFE_PP_
*724 reg_array\[5\]\[8\]\$_DFFE_PP_
*725 reg_array\[5\]\[9\]\$_DFFE_PP_
*726 reg_array\[6\]\[0\]\$_DFFE_PP_
*727 reg_array\[6\]\[10\]\$_DFFE_PP_
*728 reg_array\[6\]\[11\]\$_DFFE_PP_
*729 reg_array\[6\]\[12\]\$_DFFE_PP_
*730 reg_array\[6\]\[13\]\$_DFFE_PP_
*731 reg_array\[6\]\[14\]\$_DFFE_PP_
*732 reg_array\[6\]\[15\]\$_DFFE_PP_
*733 reg_array\[6\]\[1\]\$_DFFE_PP_
*734 reg_array\[6\]\[2\]\$_DFFE_PP_
*735 reg_array\[6\]\[3\]\$_DFFE_PP_
*736 reg_array\[6\]\[4\]\$_DFFE_PP_
*737 reg_array\[6\]\[5\]\$_DFFE_PP_
*738 reg_array\[6\]\[6\]\$_DFFE_PP_
*739 reg_array\[6\]\[7\]\$_DFFE_PP_
*740 reg_array\[6\]\[8\]\$_DFFE_PP_
*741 reg_array\[6\]\[9\]\$_DFFE_PP_
*742 reg_array\[7\]\[0\]\$_DFFE_PP_
*743 reg_array\[7\]\[10\]\$_DFFE_PP_
*744 reg_array\[7\]\[11\]\$_DFFE_PP_
*745 reg_array\[7\]\[12\]\$_DFFE_PP_
*746 reg_array\[7\]\[13\]\$_DFFE_PP_
*747 reg_array\[7\]\[14\]\$_DFFE_PP_
*748 reg_array\[7\]\[15\]\$_DFFE_PP_
*749 reg_array\[7\]\[1\]\$_DFFE_PP_
*750 reg_array\[7\]\[2\]\$_DFFE_PP_
*751 reg_array\[7\]\[3\]\$_DFFE_PP_
*752 reg_array\[7\]\[4\]\$_DFFE_PP_
*753 reg_array\[7\]\[5\]\$_DFFE_PP_
*754 reg_array\[7\]\[6\]\$_DFFE_PP_
*755 reg_array\[7\]\[7\]\$_DFFE_PP_
*756 reg_array\[7\]\[8\]\$_DFFE_PP_
*757 reg_array\[7\]\[9\]\$_DFFE_PP_
*758 TAP_TAPCELL_ROW_5_29
*759 TAP_TAPCELL_ROW_5_30
*760 TAP_TAPCELL_ROW_6_31
*761 TAP_TAPCELL_ROW_6_32
*762 TAP_TAPCELL_ROW_6_33
*763 TAP_TAPCELL_ROW_6_34
*764 TAP_TAPCELL_ROW_6_35
*765 TAP_TAPCELL_ROW_7_36
*766 TAP_TAPCELL_ROW_7_37
*767 TAP_TAPCELL_ROW_7_38
*768 TAP_TAPCELL_ROW_7_39
*769 TAP_TAPCELL_ROW_8_40
*770 TAP_TAPCELL_ROW_8_41
*771 TAP_TAPCELL_ROW_8_42
*772 TAP_TAPCELL_ROW_8_43
*773 TAP_TAPCELL_ROW_8_44
*774 TAP_TAPCELL_ROW_9_45
*775 TAP_TAPCELL_ROW_9_46
*776 TAP_TAPCELL_ROW_9_47
*777 TAP_TAPCELL_ROW_9_48
*778 TAP_TAPCELL_ROW_10_49
*779 TAP_TAPCELL_ROW_10_50
*780 TAP_TAPCELL_ROW_10_51
*781 TAP_TAPCELL_ROW_10_52
*782 TAP_TAPCELL_ROW_10_53
*783 TAP_TAPCELL_ROW_11_54
*784 TAP_TAPCELL_ROW_11_55
*785 TAP_TAPCELL_ROW_11_56
*786 TAP_TAPCELL_ROW_11_57
*787 TAP_TAPCELL_ROW_12_58
*788 TAP_TAPCELL_ROW_12_59
*789 TAP_TAPCELL_ROW_12_60
*790 TAP_TAPCELL_ROW_12_61
*791 TAP_TAPCELL_ROW_12_62
*792 TAP_TAPCELL_ROW_13_63
*793 TAP_TAPCELL_ROW_13_64
*794 TAP_TAPCELL_ROW_13_65
*795 TAP_TAPCELL_ROW_13_66
*796 TAP_TAPCELL_ROW_14_67
*797 TAP_TAPCELL_ROW_14_68
*798 TAP_TAPCELL_ROW_14_69
*799 TAP_TAPCELL_ROW_14_70
*800 TAP_TAPCELL_ROW_14_71
*801 TAP_TAPCELL_ROW_15_72
*802 TAP_TAPCELL_ROW_15_73
*803 TAP_TAPCELL_ROW_15_74
*804 TAP_TAPCELL_ROW_15_75
*805 TAP_TAPCELL_ROW_16_76
*806 TAP_TAPCELL_ROW_16_77
*807 TAP_TAPCELL_ROW_16_78
*808 TAP_TAPCELL_ROW_16_79
*809 TAP_TAPCELL_ROW_16_80
*810 TAP_TAPCELL_ROW_17_81
*811 TAP_TAPCELL_ROW_17_82
*812 TAP_TAPCELL_ROW_17_83
*813 TAP_TAPCELL_ROW_17_84
*814 TAP_TAPCELL_ROW_18_85
*815 TAP_TAPCELL_ROW_18_86
*816 TAP_TAPCELL_ROW_18_87
*817 TAP_TAPCELL_ROW_18_88
*818 TAP_TAPCELL_ROW_18_89
*819 TAP_TAPCELL_ROW_19_90
*820 TAP_TAPCELL_ROW_19_91
*821 TAP_TAPCELL_ROW_19_92
*822 TAP_TAPCELL_ROW_19_93
*823 TAP_TAPCELL_ROW_20_94
*824 TAP_TAPCELL_ROW_20_95
*825 TAP_TAPCELL_ROW_20_96
*826 TAP_TAPCELL_ROW_20_97
*827 TAP_TAPCELL_ROW_20_98
*828 TAP_TAPCELL_ROW_21_99
*829 TAP_TAPCELL_ROW_21_100
*830 TAP_TAPCELL_ROW_21_101
*831 TAP_TAPCELL_ROW_21_102
*832 TAP_TAPCELL_ROW_22_103
*833 TAP_TAPCELL_ROW_22_104
*834 TAP_TAPCELL_ROW_22_105
*835 TAP_TAPCELL_ROW_22_106
*836 TAP_TAPCELL_ROW_22_107
*837 TAP_TAPCELL_ROW_23_108
*838 TAP_TAPCELL_ROW_23_109
*839 TAP_TAPCELL_ROW_23_110
*840 TAP_TAPCELL_ROW_23_111
*841 TAP_TAPCELL_ROW_24_112
*842 TAP_TAPCELL_ROW_24_113
*843 TAP_TAPCELL_ROW_24_114
*844 TAP_TAPCELL_ROW_24_115
*845 TAP_TAPCELL_ROW_24_116
*846 TAP_TAPCELL_ROW_25_117
*847 TAP_TAPCELL_ROW_25_118
*848 TAP_TAPCELL_ROW_25_119
*849 TAP_TAPCELL_ROW_25_120
*850 TAP_TAPCELL_ROW_26_121
*851 TAP_TAPCELL_ROW_26_122
*852 TAP_TAPCELL_ROW_26_123
*853 TAP_TAPCELL_ROW_26_124
*854 TAP_TAPCELL_ROW_26_125
*855 TAP_TAPCELL_ROW_27_126
*856 TAP_TAPCELL_ROW_27_127
*857 TAP_TAPCELL_ROW_27_128
*858 TAP_TAPCELL_ROW_27_129
*859 TAP_TAPCELL_ROW_28_130
*860 TAP_TAPCELL_ROW_28_131
*861 TAP_TAPCELL_ROW_28_132
*862 TAP_TAPCELL_ROW_28_133
*863 TAP_TAPCELL_ROW_28_134
*864 TAP_TAPCELL_ROW_29_135
*865 TAP_TAPCELL_ROW_29_136
*866 TAP_TAPCELL_ROW_29_137
*867 TAP_TAPCELL_ROW_29_138
*868 TAP_TAPCELL_ROW_30_139
*869 TAP_TAPCELL_ROW_30_140
*870 TAP_TAPCELL_ROW_30_141
*871 TAP_TAPCELL_ROW_30_142
*872 TAP_TAPCELL_ROW_30_143
*873 TAP_TAPCELL_ROW_31_144
*874 TAP_TAPCELL_ROW_31_145
*875 TAP_TAPCELL_ROW_31_146
*876 TAP_TAPCELL_ROW_31_147
*877 TAP_TAPCELL_ROW_32_148
*878 TAP_TAPCELL_ROW_32_149
*879 TAP_TAPCELL_ROW_32_150
*880 TAP_TAPCELL_ROW_32_151
*881 TAP_TAPCELL_ROW_32_152
*882 TAP_TAPCELL_ROW_33_153
*883 TAP_TAPCELL_ROW_33_154
*884 TAP_TAPCELL_ROW_33_155
*885 TAP_TAPCELL_ROW_33_156
*886 TAP_TAPCELL_ROW_34_157
*887 TAP_TAPCELL_ROW_34_158
*888 TAP_TAPCELL_ROW_34_159
*889 TAP_TAPCELL_ROW_34_160
*890 TAP_TAPCELL_ROW_34_161
*891 TAP_TAPCELL_ROW_35_162
*892 TAP_TAPCELL_ROW_35_163
*893 TAP_TAPCELL_ROW_35_164
*894 TAP_TAPCELL_ROW_35_165
*895 TAP_TAPCELL_ROW_36_166
*896 TAP_TAPCELL_ROW_36_167
*897 TAP_TAPCELL_ROW_36_168
*898 TAP_TAPCELL_ROW_36_169
*899 TAP_TAPCELL_ROW_36_170
*900 TAP_TAPCELL_ROW_37_171
*901 TAP_TAPCELL_ROW_37_172
*902 TAP_TAPCELL_ROW_37_173
*903 TAP_TAPCELL_ROW_37_174
*904 TAP_TAPCELL_ROW_38_175
*905 TAP_TAPCELL_ROW_38_176
*906 TAP_TAPCELL_ROW_38_177
*907 TAP_TAPCELL_ROW_38_178
*908 TAP_TAPCELL_ROW_38_179
*909 TAP_TAPCELL_ROW_39_180
*910 TAP_TAPCELL_ROW_39_181
*911 TAP_TAPCELL_ROW_39_182
*912 TAP_TAPCELL_ROW_39_183
*913 TAP_TAPCELL_ROW_40_184
*914 TAP_TAPCELL_ROW_40_185
*915 TAP_TAPCELL_ROW_40_186
*916 TAP_TAPCELL_ROW_40_187
*917 TAP_TAPCELL_ROW_40_188
*918 TAP_TAPCELL_ROW_41_189
*919 TAP_TAPCELL_ROW_41_190
*920 TAP_TAPCELL_ROW_41_191
*921 TAP_TAPCELL_ROW_41_192
*922 TAP_TAPCELL_ROW_42_193
*923 TAP_TAPCELL_ROW_42_194
*924 TAP_TAPCELL_ROW_42_195
*925 TAP_TAPCELL_ROW_42_196
*926 TAP_TAPCELL_ROW_42_197
*927 TAP_TAPCELL_ROW_43_198
*928 TAP_TAPCELL_ROW_43_199
*929 TAP_TAPCELL_ROW_43_200
*930 TAP_TAPCELL_ROW_43_201
*931 TAP_TAPCELL_ROW_44_202
*932 TAP_TAPCELL_ROW_44_203
*933 TAP_TAPCELL_ROW_44_204
*934 TAP_TAPCELL_ROW_44_205
*935 TAP_TAPCELL_ROW_44_206
*936 TAP_TAPCELL_ROW_44_207
*937 TAP_TAPCELL_ROW_44_208
*938 TAP_TAPCELL_ROW_44_209
*939 TAP_TAPCELL_ROW_44_210
*940 input1
*941 input2
*942 input3
*943 input4
*944 input5
*945 input6
*946 input7
*947 input8
*948 input9
*949 input10
*950 input11
*951 input12
*952 input13
*953 input14
*954 input15
*955 input16
*956 input17
*957 input18
*958 input19
*959 input20
*960 input21
*961 input22
*962 input23
*963 input24
*964 input25
*965 input26
*966 output27
*967 output28
*968 output29
*969 output30
*970 output31
*971 output32
*972 output33
*973 output34
*974 output35
*975 output36
*976 output37
*977 output38
*978 output39
*979 output40
*980 output41
*981 output42
*982 output43
*983 output44
*984 output45
*985 output46
*986 output47
*987 output48
*988 output49
*989 output50
*990 output51
*991 output52
*992 output53
*993 output54
*994 output55
*995 output56
*996 output57
*997 output58
*998 place69
*999 place72
*1000 place76
*1001 clkbuf_0_clk
*1002 place63
*1003 place64
*1004 place65
*1005 place66
*1006 place67
*1007 place68
*1008 place70
*1009 place71
*1010 place73
*1011 place74
*1012 place75
*1013 place77
*1014 place78
*1015 clkbuf_3_0__f_clk
*1016 clkbuf_3_1__f_clk
*1017 clkbuf_3_2__f_clk
*1018 clkbuf_3_3__f_clk
*1019 clkbuf_3_4__f_clk
*1020 clkbuf_3_5__f_clk
*1021 clkbuf_3_6__f_clk
*1022 clkbuf_3_7__f_clk
*1023 clkload0
*1024 clkload1
*1025 clkload2
*1026 clkload3
*1027 clkload4
*1028 clkload5
*1029 FILLER_0_0
*1030 FILLER_0_8
*1031 FILLER_0_16
*1032 FILLER_0_24
*1033 FILLER_0_28
*1034 FILLER_0_31
*1035 FILLER_0_39
*1036 FILLER_0_47
*1037 FILLER_0_55
*1038 FILLER_0_59
*1039 FILLER_0_61
*1040 FILLER_0_63
*1041 FILLER_0_72
*1042 FILLER_0_80
*1043 FILLER_0_88
*1044 FILLER_0_91
*1045 FILLER_0_103
*1046 FILLER_0_107
*1047 FILLER_0_117
*1048 FILLER_0_119
*1049 FILLER_0_129
*1050 FILLER_0_133
*1051 FILLER_0_142
*1052 FILLER_0_151
*1053 FILLER_0_159
*1054 FILLER_0_163
*1055 FILLER_0_172
*1056 FILLER_0_181
*1057 FILLER_0_189
*1058 FILLER_0_197
*1059 FILLER_0_205
*1060 FILLER_0_209
*1061 FILLER_0_211
*1062 FILLER_0_219
*1063 FILLER_0_227
*1064 FILLER_0_235
*1065 FILLER_0_239
*1066 FILLER_0_241
*1067 FILLER_0_249
*1068 FILLER_0_257
*1069 FILLER_0_265
*1070 FILLER_0_269
*1071 FILLER_0_271
*1072 FILLER_0_273
*1073 FILLER_1_0
*1074 FILLER_1_8
*1075 FILLER_1_16
*1076 FILLER_1_24
*1077 FILLER_1_32
*1078 FILLER_1_40
*1079 FILLER_1_48
*1080 FILLER_1_56
*1081 FILLER_1_61
*1082 FILLER_1_69
*1083 FILLER_1_77
*1084 FILLER_1_85
*1085 FILLER_1_93
*1086 FILLER_1_102
*1087 FILLER_1_110
*1088 FILLER_1_118
*1089 FILLER_1_121
*1090 FILLER_1_129
*1091 FILLER_1_141
*1092 FILLER_1_145
*1093 FILLER_1_155
*1094 FILLER_1_163
*1095 FILLER_1_171
*1096 FILLER_1_179
*1097 FILLER_1_181
*1098 FILLER_1_189
*1099 FILLER_1_207
*1100 FILLER_1_215
*1101 FILLER_1_223
*1102 FILLER_1_231
*1103 FILLER_1_239
*1104 FILLER_1_241
*1105 FILLER_1_249
*1106 FILLER_1_257
*1107 FILLER_1_265
*1108 FILLER_1_273
*1109 FILLER_2_0
*1110 FILLER_2_8
*1111 FILLER_2_16
*1112 FILLER_2_24
*1113 FILLER_2_28
*1114 FILLER_2_31
*1115 FILLER_2_39
*1116 FILLER_2_47
*1117 FILLER_2_55
*1118 FILLER_2_63
*1119 FILLER_2_65
*1120 FILLER_2_99
*1121 FILLER_2_101
*1122 FILLER_2_159
*1123 FILLER_2_187
*1124 FILLER_2_195
*1125 FILLER_2_203
*1126 FILLER_2_207
*1127 FILLER_2_209
*1128 FILLER_2_211
*1129 FILLER_2_219
*1130 FILLER_2_227
*1131 FILLER_2_235
*1132 FILLER_2_243
*1133 FILLER_2_251
*1134 FILLER_2_259
*1135 FILLER_2_267
*1136 FILLER_2_269
*1137 FILLER_2_271
*1138 FILLER_2_273
*1139 FILLER_3_0
*1140 FILLER_3_8
*1141 FILLER_3_16
*1142 FILLER_3_24
*1143 FILLER_3_32
*1144 FILLER_3_40
*1145 FILLER_3_48
*1146 FILLER_3_56
*1147 FILLER_3_61
*1148 FILLER_3_121
*1149 FILLER_3_129
*1150 FILLER_3_165
*1151 FILLER_3_173
*1152 FILLER_3_177
*1153 FILLER_3_179
*1154 FILLER_3_190
*1155 FILLER_3_198
*1156 FILLER_3_206
*1157 FILLER_3_214
*1158 FILLER_3_222
*1159 FILLER_3_230
*1160 FILLER_3_238
*1161 FILLER_3_241
*1162 FILLER_3_249
*1163 FILLER_3_257
*1164 FILLER_3_265
*1165 FILLER_3_273
*1166 FILLER_4_0
*1167 FILLER_4_8
*1168 FILLER_4_16
*1169 FILLER_4_24
*1170 FILLER_4_28
*1171 FILLER_4_31
*1172 FILLER_4_39
*1173 FILLER_4_47
*1174 FILLER_4_55
*1175 FILLER_4_63
*1176 FILLER_4_71
*1177 FILLER_4_79
*1178 FILLER_4_87
*1179 FILLER_4_89
*1180 FILLER_4_91
*1181 FILLER_4_99
*1182 FILLER_4_107
*1183 FILLER_4_132
*1184 FILLER_4_140
*1185 FILLER_4_148
*1186 FILLER_4_151
*1187 FILLER_4_162
*1188 FILLER_4_196
*1189 FILLER_4_204
*1190 FILLER_4_208
*1191 FILLER_4_211
*1192 FILLER_4_219
*1193 FILLER_4_227
*1194 FILLER_4_235
*1195 FILLER_4_243
*1196 FILLER_4_251
*1197 FILLER_4_259
*1198 FILLER_4_267
*1199 FILLER_4_269
*1200 FILLER_4_271
*1201 FILLER_4_273
*1202 FILLER_5_0
*1203 FILLER_5_4
*1204 FILLER_5_6
*1205 FILLER_5_31
*1206 FILLER_5_41
*1207 FILLER_5_49
*1208 FILLER_5_57
*1209 FILLER_5_59
*1210 FILLER_5_61
*1211 FILLER_5_69
*1212 FILLER_5_77
*1213 FILLER_5_85
*1214 FILLER_5_89
*1215 FILLER_5_99
*1216 FILLER_5_107
*1217 FILLER_5_115
*1218 FILLER_5_119
*1219 FILLER_5_121
*1220 FILLER_5_129
*1221 FILLER_5_137
*1222 FILLER_5_145
*1223 FILLER_5_149
*1224 FILLER_5_153
*1225 FILLER_5_161
*1226 FILLER_5_169
*1227 FILLER_5_177
*1228 FILLER_5_179
*1229 FILLER_5_181
*1230 FILLER_5_185
*1231 FILLER_5_187
*1232 FILLER_5_191
*1233 FILLER_5_199
*1234 FILLER_5_207
*1235 FILLER_5_215
*1236 FILLER_5_223
*1237 FILLER_5_231
*1238 FILLER_5_239
*1239 FILLER_5_241
*1240 FILLER_5_249
*1241 FILLER_5_257
*1242 FILLER_5_265
*1243 FILLER_5_273
*1244 FILLER_6_0
*1245 FILLER_6_4
*1246 FILLER_6_83
*1247 FILLER_6_87
*1248 FILLER_6_89
*1249 FILLER_6_103
*1250 FILLER_6_111
*1251 FILLER_6_115
*1252 FILLER_6_117
*1253 FILLER_6_135
*1254 FILLER_6_143
*1255 FILLER_6_147
*1256 FILLER_6_149
*1257 FILLER_6_163
*1258 FILLER_6_171
*1259 FILLER_6_199
*1260 FILLER_6_207
*1261 FILLER_6_209
*1262 FILLER_6_211
*1263 FILLER_6_219
*1264 FILLER_6_227
*1265 FILLER_6_235
*1266 FILLER_6_243
*1267 FILLER_6_251
*1268 FILLER_6_259
*1269 FILLER_6_267
*1270 FILLER_6_269
*1271 FILLER_6_271
*1272 FILLER_6_273
*1273 FILLER_7_0
*1274 FILLER_7_8
*1275 FILLER_7_16
*1276 FILLER_7_24
*1277 FILLER_7_32
*1278 FILLER_7_69
*1279 FILLER_7_104
*1280 FILLER_7_112
*1281 FILLER_7_121
*1282 FILLER_7_134
*1283 FILLER_7_138
*1284 FILLER_7_172
*1285 FILLER_7_210
*1286 FILLER_7_218
*1287 FILLER_7_226
*1288 FILLER_7_234
*1289 FILLER_7_238
*1290 FILLER_7_241
*1291 FILLER_7_249
*1292 FILLER_7_257
*1293 FILLER_7_265
*1294 FILLER_7_273
*1295 FILLER_8_24
*1296 FILLER_8_28
*1297 FILLER_8_31
*1298 FILLER_8_35
*1299 FILLER_8_91
*1300 FILLER_8_95
*1301 FILLER_8_104
*1302 FILLER_8_106
*1303 FILLER_8_139
*1304 FILLER_8_143
*1305 FILLER_8_151
*1306 FILLER_8_153
*1307 FILLER_8_198
*1308 FILLER_8_206
*1309 FILLER_8_211
*1310 FILLER_8_219
*1311 FILLER_8_227
*1312 FILLER_8_235
*1313 FILLER_8_243
*1314 FILLER_8_251
*1315 FILLER_8_259
*1316 FILLER_8_267
*1317 FILLER_8_269
*1318 FILLER_8_271
*1319 FILLER_8_273
*1320 FILLER_9_8
*1321 FILLER_9_16
*1322 FILLER_9_24
*1323 FILLER_9_32
*1324 FILLER_9_40
*1325 FILLER_9_48
*1326 FILLER_9_56
*1327 FILLER_9_61
*1328 FILLER_9_65
*1329 FILLER_9_73
*1330 FILLER_9_77
*1331 FILLER_9_102
*1332 FILLER_9_110
*1333 FILLER_9_118
*1334 FILLER_9_121
*1335 FILLER_9_129
*1336 FILLER_9_137
*1337 FILLER_9_139
*1338 FILLER_9_164
*1339 FILLER_9_172
*1340 FILLER_9_181
*1341 FILLER_9_185
*1342 FILLER_9_187
*1343 FILLER_9_193
*1344 FILLER_9_201
*1345 FILLER_9_209
*1346 FILLER_9_217
*1347 FILLER_9_225
*1348 FILLER_9_233
*1349 FILLER_9_237
*1350 FILLER_9_239
*1351 FILLER_9_241
*1352 FILLER_9_249
*1353 FILLER_9_257
*1354 FILLER_9_265
*1355 FILLER_9_273
*1356 FILLER_10_16
*1357 FILLER_10_27
*1358 FILLER_10_29
*1359 FILLER_10_31
*1360 FILLER_10_35
*1361 FILLER_10_37
*1362 FILLER_10_62
*1363 FILLER_10_70
*1364 FILLER_10_78
*1365 FILLER_10_86
*1366 FILLER_10_91
*1367 FILLER_10_99
*1368 FILLER_10_103
*1369 FILLER_10_105
*1370 FILLER_10_130
*1371 FILLER_10_138
*1372 FILLER_10_146
*1373 FILLER_10_151
*1374 FILLER_10_166
*1375 FILLER_10_170
*1376 FILLER_10_195
*1377 FILLER_10_203
*1378 FILLER_10_207
*1379 FILLER_10_209
*1380 FILLER_10_211
*1381 FILLER_10_219
*1382 FILLER_10_227
*1383 FILLER_10_235
*1384 FILLER_10_243
*1385 FILLER_10_251
*1386 FILLER_10_259
*1387 FILLER_10_267
*1388 FILLER_10_269
*1389 FILLER_10_271
*1390 FILLER_10_273
*1391 FILLER_11_0
*1392 FILLER_11_10
*1393 FILLER_11_17
*1394 FILLER_11_26
*1395 FILLER_11_30
*1396 FILLER_11_38
*1397 FILLER_11_46
*1398 FILLER_11_50
*1399 FILLER_11_52
*1400 FILLER_11_61
*1401 FILLER_11_71
*1402 FILLER_11_79
*1403 FILLER_11_87
*1404 FILLER_11_95
*1405 FILLER_11_97
*1406 FILLER_11_110
*1407 FILLER_11_118
*1408 FILLER_11_121
*1409 FILLER_11_129
*1410 FILLER_11_137
*1411 FILLER_11_165
*1412 FILLER_11_173
*1413 FILLER_11_177
*1414 FILLER_11_179
*1415 FILLER_11_181
*1416 FILLER_11_183
*1417 FILLER_11_196
*1418 FILLER_11_204
*1419 FILLER_11_212
*1420 FILLER_11_220
*1421 FILLER_11_228
*1422 FILLER_11_236
*1423 FILLER_11_241
*1424 FILLER_11_249
*1425 FILLER_11_257
*1426 FILLER_11_265
*1427 FILLER_11_273
*1428 FILLER_12_8
*1429 FILLER_12_10
*1430 FILLER_12_26
*1431 FILLER_12_31
*1432 FILLER_12_41
*1433 FILLER_12_67
*1434 FILLER_12_78
*1435 FILLER_12_86
*1436 FILLER_12_91
*1437 FILLER_12_111
*1438 FILLER_12_119
*1439 FILLER_12_123
*1440 FILLER_12_125
*1441 FILLER_12_151
*1442 FILLER_12_155
*1443 FILLER_12_181
*1444 FILLER_12_183
*1445 FILLER_12_193
*1446 FILLER_12_201
*1447 FILLER_12_209
*1448 FILLER_12_211
*1449 FILLER_12_219
*1450 FILLER_12_227
*1451 FILLER_12_235
*1452 FILLER_12_243
*1453 FILLER_12_251
*1454 FILLER_12_259
*1455 FILLER_12_267
*1456 FILLER_12_269
*1457 FILLER_12_271
*1458 FILLER_12_273
*1459 FILLER_13_0
*1460 FILLER_13_8
*1461 FILLER_13_21
*1462 FILLER_13_29
*1463 FILLER_13_61
*1464 FILLER_13_69
*1465 FILLER_13_77
*1466 FILLER_13_112
*1467 FILLER_13_178
*1468 FILLER_13_193
*1469 FILLER_13_197
*1470 FILLER_13_223
*1471 FILLER_13_231
*1472 FILLER_13_241
*1473 FILLER_13_249
*1474 FILLER_13_257
*1475 FILLER_13_265
*1476 FILLER_13_273
*1477 FILLER_14_0
*1478 FILLER_14_8
*1479 FILLER_14_16
*1480 FILLER_14_24
*1481 FILLER_14_28
*1482 FILLER_14_31
*1483 FILLER_14_39
*1484 FILLER_14_47
*1485 FILLER_14_55
*1486 FILLER_14_59
*1487 FILLER_14_72
*1488 FILLER_14_80
*1489 FILLER_14_88
*1490 FILLER_14_91
*1491 FILLER_14_95
*1492 FILLER_14_108
*1493 FILLER_14_116
*1494 FILLER_14_124
*1495 FILLER_14_151
*1496 FILLER_14_159
*1497 FILLER_14_167
*1498 FILLER_14_187
*1499 FILLER_14_195
*1500 FILLER_14_203
*1501 FILLER_14_207
*1502 FILLER_14_209
*1503 FILLER_14_211
*1504 FILLER_14_232
*1505 FILLER_14_240
*1506 FILLER_14_248
*1507 FILLER_14_256
*1508 FILLER_14_264
*1509 FILLER_14_268
*1510 FILLER_14_271
*1511 FILLER_14_273
*1512 FILLER_15_0
*1513 FILLER_15_32
*1514 FILLER_15_40
*1515 FILLER_15_42
*1516 FILLER_15_48
*1517 FILLER_15_58
*1518 FILLER_15_61
*1519 FILLER_15_69
*1520 FILLER_15_77
*1521 FILLER_15_103
*1522 FILLER_15_111
*1523 FILLER_15_119
*1524 FILLER_15_121
*1525 FILLER_15_125
*1526 FILLER_15_136
*1527 FILLER_15_149
*1528 FILLER_15_157
*1529 FILLER_15_165
*1530 FILLER_15_169
*1531 FILLER_15_176
*1532 FILLER_15_181
*1533 FILLER_15_189
*1534 FILLER_15_197
*1535 FILLER_15_225
*1536 FILLER_15_233
*1537 FILLER_15_237
*1538 FILLER_15_239
*1539 FILLER_15_241
*1540 FILLER_15_249
*1541 FILLER_15_257
*1542 FILLER_15_265
*1543 FILLER_15_273
*1544 FILLER_16_0
*1545 FILLER_16_8
*1546 FILLER_16_10
*1547 FILLER_16_19
*1548 FILLER_16_27
*1549 FILLER_16_29
*1550 FILLER_16_43
*1551 FILLER_16_45
*1552 FILLER_16_91
*1553 FILLER_16_99
*1554 FILLER_16_124
*1555 FILLER_16_126
*1556 FILLER_16_139
*1557 FILLER_16_147
*1558 FILLER_16_149
*1559 FILLER_16_151
*1560 FILLER_16_159