*SPEF "ieee 1481-1999"
*DESIGN "Instruction_Memory_16"
*DATE "17:06:25 Monday November 17, 2025"
*VENDOR "The OpenROAD Project"
*PROGRAM "OpenROAD"
*VERSION "edf00dff99f6c40d67a30c0e22a8191c5d2ed9d6"
*DESIGN_FLOW "NAME_SCOPE LOCAL" "PIN_CAP NONE"
*DIVIDER /
*DELIMITER :
*BUS_DELIMITER []
*T_UNIT 1 NS
*C_UNIT 1 PF
*R_UNIT 1 OHM
*L_UNIT 1 HENRY

*NAME_MAP
*3 clk
*4 instruction[0]
*5 instruction[10]
*6 instruction[11]
*7 instruction[12]
*8 instruction[13]
*9 instruction[14]
*10 instruction[15]
*11 instruction[1]
*12 instruction[2]
*13 instruction[3]
*14 instruction[4]
*15 instruction[5]
*16 instruction[6]
*17 instruction[7]
*18 instruction[8]
*19 instruction[9]
*20 pc[0]
*21 pc[10]
*22 pc[11]
*23 pc[12]
*24 pc[13]
*25 pc[14]
*26 pc[15]
*27 pc[1]
*28 pc[2]
*29 pc[3]
*30 pc[4]
*31 pc[5]
*32 pc[6]
*33 pc[7]
*34 pc[8]
*35 pc[9]
*36 _000_
*37 _001_
*38 _002_
*39 _003_
*40 _004_
*41 _005_
*42 _006_
*43 _007_
*44 _008_
*45 _009_
*46 _010_
*47 _011_
*48 _012_
*49 _013_
*50 _014_
*51 _015_
*52 _016_
*53 _017_
*54 _018_
*55 _019_
*56 _020_
*57 _021_
*58 _022_
*59 _023_
*60 _024_
*61 _025_
*62 _026_
*63 _027_
*64 _028_
*65 _029_
*66 _030_
*67 _031_
*68 _032_
*69 _033_
*70 _034_
*71 _035_
*72 _036_
*73 _037_
*74 _038_
*75 _039_
*76 _040_
*77 _041_
*78 _042_
*79 _043_
*80 _044_
*81 _045_
*82 _046_
*83 _047_
*84 _048_
*85 _049_
*86 _050_
*87 _051_
*88 _052_
*89 _053_
*90 _054_
*91 _055_
*92 _056_
*93 _057_
*94 clknet_0_clk
*95 clknet_1_0__leaf_clk
*96 clknet_1_1__leaf_clk
*97 net1
*98 net10
*99 net11
*100 net12
*101 net13
*102 net14
*103 net15
*104 net16
*105 net17
*106 net18
*107 net19
*108 net2
*109 net20
*110 net21
*111 net22
*112 net23
*113 net24
*114 net25
*115 net26
*116 net27
*117 net28
*118 net29
*119 net3
*120 net30
*121 net31
*122 net32
*123 net33
*124 net34
*125 net35
*126 net4
*127 net5
*128 net6
*129 net7
*130 net8
*131 net9
*132 FILLER_0_110
*133 FILLER_0_113
*134 FILLER_0_125
*135 FILLER_0_133
*136 FILLER_0_141
*137 FILLER_0_15
*138 FILLER_0_153
*139 FILLER_0_165
*140 FILLER_0_169
*141 FILLER_0_181
*142 FILLER_0_193
*143 FILLER_0_197
*144 FILLER_0_209
*145 FILLER_0_221
*146 FILLER_0_225
*147 FILLER_0_237
*148 FILLER_0_249
*149 FILLER_0_253
*150 FILLER_0_265
*151 FILLER_0_27
*152 FILLER_0_29
*153 FILLER_0_3
*154 FILLER_0_41
*155 FILLER_0_53
*156 FILLER_0_57
*157 FILLER_0_69
*158 FILLER_0_81
*159 FILLER_0_85
*160 FILLER_0_93
*161 FILLER_0_98
*162 FILLER_10_109
*163 FILLER_10_121
*164 FILLER_10_133
*165 FILLER_10_139
*166 FILLER_10_141
*167 FILLER_10_15
*168 FILLER_10_153
*169 FILLER_10_165
*170 FILLER_10_177
*171 FILLER_10_189
*172 FILLER_10_195
*173 FILLER_10_197
*174 FILLER_10_209
*175 FILLER_10_221
*176 FILLER_10_233
*177 FILLER_10_245
*178 FILLER_10_251
*179 FILLER_10_253
*180 FILLER_10_265
*181 FILLER_10_27
*182 FILLER_10_29
*183 FILLER_10_3
*184 FILLER_10_41
*185 FILLER_10_53
*186 FILLER_10_65
*187 FILLER_10_77
*188 FILLER_10_83
*189 FILLER_10_85
*190 FILLER_10_97
*191 FILLER_11_105
*192 FILLER_11_111
*193 FILLER_11_113
*194 FILLER_11_125
*195 FILLER_11_137
*196 FILLER_11_149
*197 FILLER_11_15
*198 FILLER_11_161
*199 FILLER_11_167
*200 FILLER_11_169
*201 FILLER_11_181
*202 FILLER_11_193
*203 FILLER_11_205
*204 FILLER_11_217
*205 FILLER_11_223
*206 FILLER_11_225
*207 FILLER_11_237
*208 FILLER_11_249
*209 FILLER_11_261
*210 FILLER_11_269
*211 FILLER_11_27
*212 FILLER_11_3
*213 FILLER_11_39
*214 FILLER_11_51
*215 FILLER_11_55
*216 FILLER_11_57
*217 FILLER_11_69
*218 FILLER_11_81
*219 FILLER_11_93
*220 FILLER_12_109
*221 FILLER_12_121
*222 FILLER_12_133
*223 FILLER_12_139
*224 FILLER_12_141
*225 FILLER_12_15
*226 FILLER_12_153
*227 FILLER_12_165
*228 FILLER_12_177
*229 FILLER_12_189
*230 FILLER_12_195
*231 FILLER_12_197
*232 FILLER_12_209
*233 FILLER_12_221
*234 FILLER_12_233
*235 FILLER_12_245
*236 FILLER_12_251
*237 FILLER_12_253
*238 FILLER_12_265
*239 FILLER_12_27
*240 FILLER_12_29
*241 FILLER_12_3
*242 FILLER_12_41
*243 FILLER_12_53
*244 FILLER_12_65
*245 FILLER_12_77
*246 FILLER_12_83
*247 FILLER_12_85
*248 FILLER_12_97
*249 FILLER_13_105
*250 FILLER_13_111
*251 FILLER_13_113
*252 FILLER_13_125
*253 FILLER_13_137
*254 FILLER_13_149
*255 FILLER_13_15
*256 FILLER_13_161
*257 FILLER_13_167
*258 FILLER_13_169
*259 FILLER_13_181
*260 FILLER_13_193
*261 FILLER_13_205
*262 FILLER_13_217
*263 FILLER_13_223
*264 FILLER_13_225
*265 FILLER_13_237
*266 FILLER_13_249
*267 FILLER_13_261
*268 FILLER_13_269
*269 FILLER_13_27
*270 FILLER_13_3
*271 FILLER_13_39
*272 FILLER_13_51
*273 FILLER_13_55
*274 FILLER_13_57
*275 FILLER_13_69
*276 FILLER_13_81
*277 FILLER_13_93
*278 FILLER_14_103
*279 FILLER_14_120
*280 FILLER_14_132
*281 FILLER_14_141
*282 FILLER_14_15
*283 FILLER_14_153
*284 FILLER_14_165
*285 FILLER_14_177
*286 FILLER_14_189
*287 FILLER_14_195
*288 FILLER_14_197
*289 FILLER_14_209
*290 FILLER_14_221
*291 FILLER_14_233
*292 FILLER_14_245
*293 FILLER_14_251
*294 FILLER_14_253
*295 FILLER_14_265
*296 FILLER_14_27
*297 FILLER_14_29
*298 FILLER_14_3
*299 FILLER_14_41
*300 FILLER_14_53
*301 FILLER_14_57
*302 FILLER_14_74
*303 FILLER_14_82
*304 FILLER_14_85
*305 FILLER_14_97
*306 FILLER_15_105
*307 FILLER_15_111
*308 FILLER_15_113
*309 FILLER_15_125
*310 FILLER_15_137
*311 FILLER_15_149
*312 FILLER_15_169
*313 FILLER_15_181
*314 FILLER_15_19
*315 FILLER_15_193
*316 FILLER_15_205
*317 FILLER_15_217
*318 FILLER_15_223
*319 FILLER_15_225
*320 FILLER_15_237
*321 FILLER_15_249
*322 FILLER_15_261
*323 FILLER_15_31
*324 FILLER_15_43
*325 FILLER_15_55
*326 FILLER_15_57
*327 FILLER_15_69
*328 FILLER_15_7
*329 FILLER_15_81
*330 FILLER_15_93
*331 FILLER_16_109
*332 FILLER_16_11
*333 FILLER_16_121
*334 FILLER_16_133
*335 FILLER_16_139
*336 FILLER_16_141
*337 FILLER_16_153
*338 FILLER_16_170
*339 FILLER_16_182
*340 FILLER_16_194
*341 FILLER_16_197
*342 FILLER_16_209
*343 FILLER_16_221
*344 FILLER_16_233
*345 FILLER_16_245
*346 FILLER_16_251
*347 FILLER_16_253
*348 FILLER_16_265
*349 FILLER_16_29
*350 FILLER_16_3
*351 FILLER_16_41
*352 FILLER_16_53
*353 FILLER_16_65
*354 FILLER_16_77
*355 FILLER_16_83
*356 FILLER_16_85
*357 FILLER_16_97
*358 FILLER_17_111
*359 FILLER_17_113
*360 FILLER_17_121
*361 FILLER_17_126
*362 FILLER_17_138
*363 FILLER_17_144
*364 FILLER_17_161
*365 FILLER_17_167
*366 FILLER_17_169
*367 FILLER_17_18
*368 FILLER_17_181
*369 FILLER_17_193
*370 FILLER_17_205
*371 FILLER_17_217
*372 FILLER_17_223
*373 FILLER_17_225
*374 FILLER_17_237
*375 FILLER_17_249
*376 FILLER_17_261
*377 FILLER_17_269
*378 FILLER_17_30
*379 FILLER_17_42
*380 FILLER_17_50
*381 FILLER_17_55
*382 FILLER_17_57
*383 FILLER_17_6
*384 FILLER_17_69
*385 FILLER_17_81
*386 FILLER_17_93
*387 FILLER_17_99
*388 FILLER_18_107
*389 FILLER_18_116
*390 FILLER_18_123
*391 FILLER_18_129
*392 FILLER_18_134
*393 FILLER_18_141
*394 FILLER_18_15
*395 FILLER_18_153
*396 FILLER_18_165
*397 FILLER_18_177
*398 FILLER_18_189
*399 FILLER_18_195
*400 FILLER_18_197
*401 FILLER_18_209
*402 FILLER_18_221
*403 FILLER_18_233
*404 FILLER_18_245
*405 FILLER_18_251
*406 FILLER_18_253
*407 FILLER_18_265
*408 FILLER_18_27
*409 FILLER_18_29
*410 FILLER_18_3
*411 FILLER_18_35
*412 FILLER_18_48
*413 FILLER_18_60
*414 FILLER_18_68
*415 FILLER_18_76
*416 FILLER_18_85
*417 FILLER_18_93
*418 FILLER_19_100
*419 FILLER_19_104
*420 FILLER_19_111
*421 FILLER_19_113
*422 FILLER_19_122
*423 FILLER_19_13
*424 FILLER_19_134
*425 FILLER_19_146
*426 FILLER_19_164
*427 FILLER_19_169
*428 FILLER_19_181
*429 FILLER_19_193
*430 FILLER_19_205
*431 FILLER_19_217
*432 FILLER_19_223
*433 FILLER_19_225
*434 FILLER_19_237
*435 FILLER_19_249
*436 FILLER_19_25
*437 FILLER_19_261
*438 FILLER_19_37
*439 FILLER_19_41
*440 FILLER_19_47
*441 FILLER_19_55
*442 FILLER_19_64
*443 FILLER_19_76
*444 FILLER_19_88
*445 FILLER_1_105
*446 FILLER_1_111
*447 FILLER_1_113
*448 FILLER_1_125
*449 FILLER_1_137
*450 FILLER_1_149
*451 FILLER_1_15
*452 FILLER_1_161
*453 FILLER_1_167
*454 FILLER_1_169
*455 FILLER_1_181
*456 FILLER_1_193
*457 FILLER_1_205
*458 FILLER_1_217
*459 FILLER_1_223
*460 FILLER_1_225
*461 FILLER_1_237
*462 FILLER_1_249
*463 FILLER_1_261
*464 FILLER_1_269
*465 FILLER_1_27
*466 FILLER_1_3
*467 FILLER_1_39
*468 FILLER_1_51
*469 FILLER_1_55
*470 FILLER_1_57
*471 FILLER_1_69
*472 FILLER_1_81
*473 FILLER_1_93
*474 FILLER_20_108
*475 FILLER_20_120
*476 FILLER_20_132
*477 FILLER_20_141
*478 FILLER_20_153
*479 FILLER_20_165
*480 FILLER_20_177
*481 FILLER_20_189
*482 FILLER_20_195
*483 FILLER_20_197
*484 FILLER_20_209
*485 FILLER_20_21
*486 FILLER_20_221
*487 FILLER_20_233
*488 FILLER_20_245
*489 FILLER_20_251
*490 FILLER_20_253
*491 FILLER_20_265
*492 FILLER_20_27
*493 FILLER_20_35
*494 FILLER_20_47
*495 FILLER_20_58
*496 FILLER_20_70
*497 FILLER_20_74
*498 FILLER_20_82
*499 FILLER_20_85
*500 FILLER_20_9
*501 FILLER_20_97
*502 FILLER_21_100
*503 FILLER_21_113
*504 FILLER_21_125
*505 FILLER_21_137
*506 FILLER_21_149
*507 FILLER_21_15
*508 FILLER_21_161
*509 FILLER_21_167
*510 FILLER_21_169
*511 FILLER_21_181
*512 FILLER_21_193
*513 FILLER_21_205
*514 FILLER_21_217
*515 FILLER_21_223
*516 FILLER_21_225
*517 FILLER_21_237
*518 FILLER_21_249
*519 FILLER_21_261
*520 FILLER_21_269
*521 FILLER_21_47
*522 FILLER_21_55
*523 FILLER_21_57
*524 FILLER_21_69
*525 FILLER_21_7
*526 FILLER_21_77
*527 FILLER_21_88
*528 FILLER_22_102
*529 FILLER_22_109
*530 FILLER_22_118
*531 FILLER_22_130
*532 FILLER_22_138
*533 FILLER_22_141
*534 FILLER_22_153
*535 FILLER_22_165
*536 FILLER_22_177
*537 FILLER_22_189
*538 FILLER_22_19
*539 FILLER_22_195
*540 FILLER_22_197
*541 FILLER_22_209
*542 FILLER_22_221
*543 FILLER_22_233
*544 FILLER_22_245
*545 FILLER_22_251
*546 FILLER_22_253
*547 FILLER_22_265
*548 FILLER_22_29
*549 FILLER_22_42
*550 FILLER_22_54
*551 FILLER_22_66
*552 FILLER_22_7
*553 FILLER_22_78
*554 FILLER_22_90
*555 FILLER_23_106
*556 FILLER_23_111
*557 FILLER_23_113
*558 FILLER_23_125
*559 FILLER_23_137
*560 FILLER_23_149
*561 FILLER_23_15
*562 FILLER_23_161
*563 FILLER_23_167
*564 FILLER_23_169
*565 FILLER_23_181
*566 FILLER_23_193
*567 FILLER_23_205
*568 FILLER_23_217
*569 FILLER_23_223
*570 FILLER_23_225
*571 FILLER_23_237
*572 FILLER_23_249
*573 FILLER_23_261
*574 FILLER_23_269
*575 FILLER_23_27
*576 FILLER_23_3
*577 FILLER_23_38
*578 FILLER_23_50
*579 FILLER_23_73
*580 FILLER_23_85
*581 FILLER_23_89
*582 FILLER_23_97
*583 FILLER_24_118
*584 FILLER_24_139
*585 FILLER_24_141
*586 FILLER_24_153
*587 FILLER_24_165
*588 FILLER_24_177
*589 FILLER_24_18
*590 FILLER_24_189
*591 FILLER_24_195
*592 FILLER_24_197
*593 FILLER_24_209
*594 FILLER_24_221
*595 FILLER_24_233
*596 FILLER_24_245
*597 FILLER_24_251
*598 FILLER_24_253
*599 FILLER_24_26
*600 FILLER_24_265
*601 FILLER_24_29
*602 FILLER_24_41
*603 FILLER_24_53
*604 FILLER_24_6
*605 FILLER_24_61
*606 FILLER_24_82
*607 FILLER_24_85
*608 FILLER_25_106
*609 FILLER_25_119
*610 FILLER_25_131
*611 FILLER_25_143
*612 FILLER_25_155
*613 FILLER_25_167
*614 FILLER_25_169
*615 FILLER_25_18
*616 FILLER_25_181
*617 FILLER_25_193
*618 FILLER_25_205
*619 FILLER_25_217
*620 FILLER_25_223
*621 FILLER_25_225
*622 FILLER_25_237
*623 FILLER_25_249
*624 FILLER_25_261
*625 FILLER_25_269
*626 FILLER_25_30
*627 FILLER_25_38
*628 FILLER_25_45
*629 FILLER_25_54
*630 FILLER_25_57
*631 FILLER_25_6
*632 FILLER_25_69
*633 FILLER_25_81
*634 FILLER_25_88
*635 FILLER_25_95
*636 FILLER_26_109
*637 FILLER_26_121
*638 FILLER_26_131
*639 FILLER_26_139
*640 FILLER_26_141
*641 FILLER_26_153
*642 FILLER_26_165
*643 FILLER_26_177
*644 FILLER_26_18
*645 FILLER_26_189
*646 FILLER_26_195
*647 FILLER_26_197
*648 FILLER_26_209
*649 FILLER_26_221
*650 FILLER_26_233
*651 FILLER_26_245
*652 FILLER_26_251
*653 FILLER_26_253
*654 FILLER_26_26
*655 FILLER_26_265
*656 FILLER_26_38
*657 FILLER_26_42
*658 FILLER_26_46
*659 FILLER_26_54
*660 FILLER_26_6
*661 FILLER_26_66
*662 FILLER_26_85
*663 FILLER_26_97
*664 FILLER_27_103
*665 FILLER_27_111
*666 FILLER_27_113
*667 FILLER_27_125
*668 FILLER_27_129
*669 FILLER_27_134
*670 FILLER_27_146
*671 FILLER_27_150
*672 FILLER_27_167
*673 FILLER_27_169
*674 FILLER_27_18
*675 FILLER_27_181
*676 FILLER_27_193
*677 FILLER_27_205
*678 FILLER_27_217
*679 FILLER_27_223
*680 FILLER_27_225
*681 FILLER_27_237
*682 FILLER_27_249
*683 FILLER_27_261
*684 FILLER_27_269
*685 FILLER_27_30
*686 FILLER_27_42
*687 FILLER_27_54
*688 FILLER_27_57
*689 FILLER_27_6
*690 FILLER_27_69
*691 FILLER_27_73
*692 FILLER_27_85
*693 FILLER_27_91
*694 FILLER_28_102
*695 FILLER_28_114
*696 FILLER_28_126
*697 FILLER_28_138
*698 FILLER_28_141
*699 FILLER_28_149
*700 FILLER_28_15
*701 FILLER_28_166
*702 FILLER_28_178
*703 FILLER_28_190
*704 FILLER_28_197
*705 FILLER_28_209
*706 FILLER_28_221
*707 FILLER_28_233
*708 FILLER_28_245
*709 FILLER_28_251
*710 FILLER_28_253
*711 FILLER_28_265
*712 FILLER_28_27
*713 FILLER_28_29
*714 FILLER_28_3
*715 FILLER_28_37
*716 FILLER_28_46
*717 FILLER_28_58
*718 FILLER_28_70
*719 FILLER_28_82
*720 FILLER_29_111
*721 FILLER_29_113
*722 FILLER_29_125
*723 FILLER_29_137
*724 FILLER_29_159
*725 FILLER_29_167
*726 FILLER_29_169
*727 FILLER_29_18
*728 FILLER_29_181
*729 FILLER_29_193
*730 FILLER_29_205
*731 FILLER_29_217
*732 FILLER_29_223
*733 FILLER_29_225
*734 FILLER_29_237
*735 FILLER_29_249
*736 FILLER_29_261
*737 FILLER_29_30
*738 FILLER_29_42
*739 FILLER_29_48
*740 FILLER_29_57
*741 FILLER_29_6
*742 FILLER_29_75
*743 FILLER_29_87
*744 FILLER_29_99
*745 FILLER_2_109
*746 FILLER_2_121
*747 FILLER_2_133
*748 FILLER_2_139
*749 FILLER_2_141
*750 FILLER_2_15
*751 FILLER_2_153
*752 FILLER_2_165
*753 FILLER_2_177
*754 FILLER_2_189
*755 FILLER_2_195
*756 FILLER_2_197
*757 FILLER_2_209
*758 FILLER_2_221
*759 FILLER_2_233
*760 FILLER_2_245
*761 FILLER_2_251
*762 FILLER_2_253
*763 FILLER_2_265
*764 FILLER_2_27
*765 FILLER_2_29
*766 FILLER_2_3
*767 FILLER_2_41
*768 FILLER_2_53
*769 FILLER_2_65
*770 FILLER_2_77
*771 FILLER_2_83
*772 FILLER_2_85
*773 FILLER_2_97
*774 FILLER_30_109
*775 FILLER_30_121
*776 FILLER_30_133
*777 FILLER_30_139
*778 FILLER_30_141
*779 FILLER_30_153
*780 FILLER_30_165
*781 FILLER_30_177
*782 FILLER_30_18
*783 FILLER_30_189
*784 FILLER_30_195
*785 FILLER_30_197
*786 FILLER_30_209
*787 FILLER_30_221
*788 FILLER_30_233
*789 FILLER_30_245
*790 FILLER_30_251
*791 FILLER_30_253
*792 FILLER_30_265
*793 FILLER_30_27
*794 FILLER_30_29
*795 FILLER_30_41
*796 FILLER_30_53
*797 FILLER_30_6
*798 FILLER_30_65
*799 FILLER_30_77
*800 FILLER_30_83
*801 FILLER_30_85
*802 FILLER_30_97
*803 FILLER_31_105
*804 FILLER_31_111
*805 FILLER_31_113
*806 FILLER_31_125
*807 FILLER_31_137
*808 FILLER_31_149
*809 FILLER_31_161
*810 FILLER_31_167
*811 FILLER_31_169
*812 FILLER_31_18
*813 FILLER_31_181
*814 FILLER_31_193
*815 FILLER_31_205
*816 FILLER_31_217
*817 FILLER_31_223
*818 FILLER_31_225
*819 FILLER_31_237
*820 FILLER_31_249
*821 FILLER_31_261
*822 FILLER_31_30
*823 FILLER_31_42
*824 FILLER_31_54
*825 FILLER_31_57
*826 FILLER_31_6
*827 FILLER_31_69
*828 FILLER_31_81
*829 FILLER_31_93
*830 FILLER_32_109
*831 FILLER_32_121
*832 FILLER_32_133
*833 FILLER_32_139
*834 FILLER_32_141
*835 FILLER_32_153
*836 FILLER_32_165
*837 FILLER_32_177
*838 FILLER_32_189
*839 FILLER_32_195
*840 FILLER_32_197
*841 FILLER_32_209
*842 FILLER_32_221
*843 FILLER_32_233
*844 FILLER_32_245
*845 FILLER_32_251
*846 FILLER_32_253
*847 FILLER_32_265
*848 FILLER_32_29
*849 FILLER_32_41
*850 FILLER_32_53
*851 FILLER_32_6
*852 FILLER_32_65
*853 FILLER_32_77
*854 FILLER_32_83
*855 FILLER_32_85
*856 FILLER_32_97
*857 FILLER_33_113
*858 FILLER_33_131
*859 FILLER_33_143
*860 FILLER_33_15
*861 FILLER_33_155
*862 FILLER_33_167
*863 FILLER_33_169
*864 FILLER_33_181
*865 FILLER_33_193
*866 FILLER_33_205
*867 FILLER_33_217
*868 FILLER_33_223
*869 FILLER_33_225
*870 FILLER_33_237
*871 FILLER_33_249
*872 FILLER_33_261
*873 FILLER_33_269
*874 FILLER_33_27
*875 FILLER_33_3
*876 FILLER_33_39
*877 FILLER_33_51
*878 FILLER_33_55
*879 FILLER_33_57
*880 FILLER_33_69
*881 FILLER_33_91
*882 FILLER_33_95
*883 FILLER_34_109
*884 FILLER_34_121
*885 FILLER_34_133
*886 FILLER_34_139
*887 FILLER_34_141
*888 FILLER_34_153
*889 FILLER_34_165
*890 FILLER_34_177
*891 FILLER_34_18
*892 FILLER_34_189
*893 FILLER_34_195
*894 FILLER_34_197
*895 FILLER_34_209
*896 FILLER_34_221
*897 FILLER_34_233
*898 FILLER_34_245
*899 FILLER_34_251
*900 FILLER_34_253
*901 FILLER_34_26
*902 FILLER_34_265
*903 FILLER_34_29
*904 FILLER_34_41
*905 FILLER_34_53
*906 FILLER_34_6
*907 FILLER_34_65
*908 FILLER_34_77
*909 FILLER_34_83
*910 FILLER_34_85
*911 FILLER_34_97
*912 FILLER_35_105
*913 FILLER_35_111
*914 FILLER_35_113
*915 FILLER_35_125
*916 FILLER_35_137
*917 FILLER_35_149
*918 FILLER_35_161
*919 FILLER_35_167
*920 FILLER_35_169
*921 FILLER_35_18
*922 FILLER_35_181
*923 FILLER_35_193
*924 FILLER_35_205
*925 FILLER_35_217
*926 FILLER_35_223
*927 FILLER_35_225
*928 FILLER_35_237
*929 FILLER_35_249
*930 FILLER_35_261
*931 FILLER_35_269
*932 FILLER_35_30
*933 FILLER_35_42
*934 FILLER_35_54
*935 FILLER_35_57
*936 FILLER_35_6
*937 FILLER_35_69
*938 FILLER_35_81
*939 FILLER_35_93
*940 FILLER_36_109
*941 FILLER_36_121
*942 FILLER_36_133
*943 FILLER_36_139
*944 FILLER_36_141
*945 FILLER_36_153
*946 FILLER_36_165
*947 FILLER_36_177
*948 FILLER_36_189
*949 FILLER_36_19
*950 FILLER_36_195
*951 FILLER_36_197
*952 FILLER_36_209
*953 FILLER_36_221
*954 FILLER_36_233
*955 FILLER_36_245
*956 FILLER_36_251
*957 FILLER_36_253
*958 FILLER_36_265
*959 FILLER_36_27
*960 FILLER_36_29
*961 FILLER_36_41
*962 FILLER_36_53
*963 FILLER_36_65
*964 FILLER_36_7
*965 FILLER_36_77
*966 FILLER_36_83
*967 FILLER_36_85
*968 FILLER_36_97
*969 FILLER_37_105
*970 FILLER_37_111
*971 FILLER_37_113
*972 FILLER_37_125
*973 FILLER_37_137
*974 FILLER_37_149
*975 FILLER_37_15
*976 FILLER_37_161
*977 FILLER_37_167
*978 FILLER_37_169
*979 FILLER_37_181
*980 FILLER_37_193
*981 FILLER_37_205
*982 FILLER_37_217
*983 FILLER_37_223
*984 FILLER_37_225
*985 FILLER_37_237
*986 FILLER_37_249
*987 FILLER_37_261
*988 FILLER_37_269
*989 FILLER_37_27
*990 FILLER_37_3
*991 FILLER_37_39
*992 FILLER_37_51
*993 FILLER_37_55
*994 FILLER_37_57
*995 FILLER_37_69
*996 FILLER_37_81
*997 FILLER_37_93
*998 FILLER_38_109
*999 FILLER_38_121
*1000 FILLER_38_133
*1001 FILLER_38_139
*1002 FILLER_38_141
*1003 FILLER_38_15
*1004 FILLER_38_153
*1005 FILLER_38_165
*1006 FILLER_38_177
*1007 FILLER_38_189
*1008 FILLER_38_195
*1009 FILLER_38_197
*1010 FILLER_38_209
*1011 FILLER_38_221
*1012 FILLER_38_233
*1013 FILLER_38_245
*1014 FILLER_38_251
*1015 FILLER_38_253
*1016 FILLER_38_265
*1017 FILLER_38_27
*1018 FILLER_38_29
*1019 FILLER_38_3
*1020 FILLER_38_41
*1021 FILLER_38_53
*1022 FILLER_38_65
*1023 FILLER_38_77
*1024 FILLER_38_83
*1025 FILLER_38_85
*1026 FILLER_38_97
*1027 FILLER_39_105
*1028 FILLER_39_111
*1029 FILLER_39_113
*1030 FILLER_39_125
*1031 FILLER_39_137
*1032 FILLER_39_149
*1033 FILLER_39_15
*1034 FILLER_39_161
*1035 FILLER_39_167
*1036 FILLER_39_169
*1037 FILLER_39_181
*1038 FILLER_39_193
*1039 FILLER_39_205
*1040 FILLER_39_217
*1041 FILLER_39_223
*1042 FILLER_39_225
*1043 FILLER_39_237
*1044 FILLER_39_249
*1045 FILLER_39_261
*1046 FILLER_39_269
*1047 FILLER_39_27
*1048 FILLER_39_3
*1049 FILLER_39_39
*1050 FILLER_39_51
*1051 FILLER_39_55
*1052 FILLER_39_57
*1053 FILLER_39_69
*1054 FILLER_39_81
*1055 FILLER_39_93
*1056 FILLER_3_105
*1057 FILLER_3_111
*1058 FILLER_3_113
*1059 FILLER_3_125
*1060 FILLER_3_137
*1061 FILLER_3_149
*1062 FILLER_3_15
*1063 FILLER_3_161
*1064 FILLER_3_167
*1065 FILLER_3_169
*1066 FILLER_3_181
*1067 FILLER_3_193
*1068 FILLER_3_205
*1069 FILLER_3_217
*1070 FILLER_3_223
*1071 FILLER_3_225
*1072 FILLER_3_237
*1073 FILLER_3_249
*1074 FILLER_3_261
*1075 FILLER_3_269
*1076 FILLER_3_27
*1077 FILLER_3_3
*1078 FILLER_3_39
*1079 FILLER_3_51
*1080 FILLER_3_55
*1081 FILLER_3_57
*1082 FILLER_3_69
*1083 FILLER_3_81
*1084 FILLER_3_93
*1085 FILLER_40_109
*1086 FILLER_40_121
*1087 FILLER_40_133
*1088 FILLER_40_139
*1089 FILLER_40_141
*1090 FILLER_40_15
*1091 FILLER_40_153
*1092 FILLER_40_165
*1093 FILLER_40_177
*1094 FILLER_40_189
*1095 FILLER_40_195
*1096 FILLER_40_197
*1097 FILLER_40_209
*1098 FILLER_40_221
*1099 FILLER_40_233
*1100 FILLER_40_245
*1101 FILLER_40_251
*1102 FILLER_40_253
*1103 FILLER_40_265
*1104 FILLER_40_27
*1105 FILLER_40_29
*1106 FILLER_40_3
*1107 FILLER_40_41
*1108 FILLER_40_53
*1109 FILLER_40_65
*1110 FILLER_40_77
*1111 FILLER_40_83
*1112 FILLER_40_85
*1113 FILLER_40_97
*1114 FILLER_41_103
*1115 FILLER_41_111
*1116 FILLER_41_113
*1117 FILLER_41_125
*1118 FILLER_41_137
*1119 FILLER_41_145
*1120 FILLER_41_15
*1121 FILLER_41_151
*1122 FILLER_41_163
*1123 FILLER_41_167
*1124 FILLER_41_169
*1125 FILLER_41_181
*1126 FILLER_41_193
*1127 FILLER_41_205
*1128 FILLER_41_217
*1129 FILLER_41_223
*1130 FILLER_41_225
*1131 FILLER_41_237
*1132 FILLER_41_249
*1133 FILLER_41_261
*1134 FILLER_41_269
*1135 FILLER_41_27
*1136 FILLER_41_3
*1137 FILLER_41_39
*1138 FILLER_41_51
*1139 FILLER_41_55
*1140 FILLER_41_57
*1141 FILLER_41_69
*1142 FILLER_41_81
*1143 FILLER_41_93
*1144 FILLER_41_99
*1145 FILLER_42_109
*1146 FILLER_42_121
*1147 FILLER_42_133
*1148 FILLER_42_139
*1149 FILLER_42_141
*1150 FILLER_42_15
*1151 FILLER_42_153
*1152 FILLER_42_165
*1153 FILLER_42_177
*1154 FILLER_42_189
*1155 FILLER_42_195
*1156 FILLER_42_197
*1157 FILLER_42_209
*1158 FILLER_42_221
*1159 FILLER_42_233
*1160 FILLER_42_245
*1161 FILLER_42_251
*1162 FILLER_42_253
*1163 FILLER_42_265
*1164 FILLER_42_27
*1165 FILLER_42_29
*1166 FILLER_42_3
*1167 FILLER_42_41
*1168 FILLER_42_53
*1169 FILLER_42_65
*1170 FILLER_42_77
*1171 FILLER_42_83
*1172 FILLER_42_85
*1173 FILLER_42_97
*1174 FILLER_43_105
*1175 FILLER_43_111
*1176 FILLER_43_113
*1177 FILLER_43_125
*1178 FILLER_43_137
*1179 FILLER_43_149
*1180 FILLER_43_15
*1181 FILLER_43_161
*1182 FILLER_43_167
*1183 FILLER_43_169
*1184 FILLER_43_181
*1185 FILLER_43_193
*1186 FILLER_43_205
*1187 FILLER_43_217
*1188 FILLER_43_223
*1189 FILLER_43_225
*1190 FILLER_43_237
*1191 FILLER_43_249
*1192 FILLER_43_261
*1193 FILLER_43_269
*1194 FILLER_43_27
*1195 FILLER_43_3
*1196 FILLER_43_39
*1197 FILLER_43_51
*1198 FILLER_43_55
*1199 FILLER_43_57
*1200 FILLER_43_69
*1201 FILLER_43_81
*1202 FILLER_43_93
*1203 FILLER_44_109
*1204 FILLER_44_121
*1205 FILLER_44_133
*1206 FILLER_44_139
*1207 FILLER_44_141
*1208 FILLER_44_15
*1209 FILLER_44_153
*1210 FILLER_44_165
*1211 FILLER_44_177
*1212 FILLER_44_189
*1213 FILLER_44_195
*1214 FILLER_44_197
*1215 FILLER_44_209
*1216 FILLER_44_221
*1217 FILLER_44_233
*1218 FILLER_44_245
*1219 FILLER_44_251
*1220 FILLER_44_253
*1221 FILLER_44_265
*1222 FILLER_44_27
*1223 FILLER_44_29
*1224 FILLER_44_3
*1225 FILLER_44_41
*1226 FILLER_44_53
*1227 FILLER_44_65
*1228 FILLER_44_77
*1229 FILLER_44_83
*1230 FILLER_44_85
*1231 FILLER_44_97
*1232 FILLER_45_105
*1233 FILLER_45_113
*1234 FILLER_45_125
*1235 FILLER_45_133
*1236 FILLER_45_139
*1237 FILLER_45_141
*1238 FILLER_45_149
*1239 FILLER_45_15
*1240 FILLER_45_154
*1241 FILLER_45_161
*1242 FILLER_45_167
*1243 FILLER_45_169
*1244 FILLER_45_181
*1245 FILLER_45_193
*1246 FILLER_45_197
*1247 FILLER_45_209
*1248 FILLER_45_221
*1249 FILLER_45_225
*1250 FILLER_45_237
*1251 FILLER_45_249
*1252 FILLER_45_253
*1253 FILLER_45_265
*1254 FILLER_45_27
*1255 FILLER_45_29
*1256 FILLER_45_3
*1257 FILLER_45_41
*1258 FILLER_45_53
*1259 FILLER_45_57
*1260 FILLER_45_69
*1261 FILLER_45_81
*1262 FILLER_45_85
*1263 FILLER_45_97
*1264 FILLER_4_109
*1265 FILLER_4_121
*1266 FILLER_4_133
*1267 FILLER_4_139
*1268 FILLER_4_141
*1269 FILLER_4_15
*1270 FILLER_4_153
*1271 FILLER_4_165
*1272 FILLER_4_177
*1273 FILLER_4_189
*1274 FILLER_4_195
*1275 FILLER_4_197
*1276 FILLER_4_209
*1277 FILLER_4_221
*1278 FILLER_4_233
*1279 FILLER_4_245
*1280 FILLER_4_251
*1281 FILLER_4_253
*1282 FILLER_4_265
*1283 FILLER_4_27
*1284 FILLER_4_29
*1285 FILLER_4_3
*1286 FILLER_4_41
*1287 FILLER_4_53
*1288 FILLER_4_65
*1289 FILLER_4_77
*1290 FILLER_4_83
*1291 FILLER_4_85
*1292 FILLER_4_97
*1293 FILLER_5_105
*1294 FILLER_5_111
*1295 FILLER_5_113
*1296 FILLER_5_125
*1297 FILLER_5_137
*1298 FILLER_5_149
*1299 FILLER_5_15
*1300 FILLER_5_161
*1301 FILLER_5_167
*1302 FILLER_5_169
*1303 FILLER_5_181
*1304 FILLER_5_193
*1305 FILLER_5_205
*1306 FILLER_5_217
*1307 FILLER_5_223
*1308 FILLER_5_225
*1309 FILLER_5_237
*1310 FILLER_5_249
*1311 FILLER_5_261
*1312 FILLER_5_269
*1313 FILLER_5_27
*1314 FILLER_5_3
*1315 FILLER_5_39
*1316 FILLER_5_51
*1317 FILLER_5_55
*1318 FILLER_5_57
*1319 FILLER_5_69
*1320 FILLER_5_81
*1321 FILLER_5_93
*1322 FILLER_6_109
*1323 FILLER_6_121
*1324 FILLER_6_133
*1325 FILLER_6_139
*1326 FILLER_6_141
*1327 FILLER_6_15
*1328 FILLER_6_153
*1329 FILLER_6_165
*1330 FILLER_6_177
*1331 FILLER_6_189
*1332 FILLER_6_195
*1333 FILLER_6_197
*1334 FILLER_6_209
*1335 FILLER_6_221
*1336 FILLER_6_233
*1337 FILLER_6_245
*1338 FILLER_6_251
*1339 FILLER_6_253
*1340 FILLER_6_265
*1341 FILLER_6_27
*1342 FILLER_6_29
*1343 FILLER_6_3
*1344 FILLER_6_41
*1345 FILLER_6_53
*1346 FILLER_6_65
*1347 FILLER_6_77
*1348 FILLER_6_83
*1349 FILLER_6_85
*1350 FILLER_6_97
*1351 FILLER_7_105
*1352 FILLER_7_111
*1353 FILLER_7_113
*1354 FILLER_7_125
*1355 FILLER_7_137
*1356 FILLER_7_149
*1357 FILLER_7_15
*1358 FILLER_7_161
*1359 FILLER_7_167
*1360 FILLER_7_169
*1361 FILLER_7_181
*1362 FILLER_7_193
*1363 FILLER_7_205
*1364 FILLER_7_217
*1365 FILLER_7_223
*1366 FILLER_7_225
*1367 FILLER_7_237
*1368 FILLER_7_249
*1369 FILLER_7_261
*1370 FILLER_7_269
*1371 FILLER_7_27
*1372 FILLER_7_3
*1373 FILLER_7_39
*1374 FILLER_7_51
*1375 FILLER_7_55
*1376 FILLER_7_57
*1377 FILLER_7_69
*1378 FILLER_7_81
*1379 FILLER_7_93
*1380 FILLER_8_109
*1381 FILLER_8_121
*1382 FILLER_8_133
*1383 FILLER_8_139
*1384 FILLER_8_141
*1385 FILLER_8_15
*1386 FILLER_8_153
*1387 FILLER_8_165
*1388 FILLER_8_177
*1389 FILLER_8_189
*1390 FILLER_8_195
*1391 FILLER_8_197
*1392 FILLER_8_209
*1393 FILLER_8_221
*1394 FILLER_8_233
*1395 FILLER_8_245
*1396 FILLER_8_251
*1397 FILLER_8_253
*1398 FILLER_8_265
*1399 FILLER_8_27
*1400 FILLER_8_29
*1401 FILLER_8_3
*1402 FILLER_8_41
*1403 FILLER_8_53
*1404 FILLER_8_65
*1405 FILLER_8_77
*1406 FILLER_8_83
*1407 FILLER_8_85
*1408 FILLER_8_97
*1409 FILLER_9_105
*1410 FILLER_9_111
*1411 FILLER_9_113
*1412 FILLER_9_125
*1413 FILLER_9_137
*1414 FILLER_9_149
*1415 FILLER_9_15
*1416 FILLER_9_161
*1417 FILLER_9_167
*1418 FILLER_9_169
*1419 FILLER_9_181
*1420 FILLER_9_193
*1421 FILLER_9_205
*1422 FILLER_9_217
*1423 FILLER_9_223
*1424 FILLER_9_225
*1425 FILLER_9_237
*1426 FILLER_9_249
*1427 FILLER_9_261
*1428 FILLER_9_269
*1429 FILLER_9_27
*1430 FILLER_9_3
*1431 FILLER_9_39
*1432 FILLER_9_51
*1433 FILLER_9_55
*1434 FILLER_9_57
*1435 FILLER_9_69
*1436 FILLER_9_81
*1437 FILLER_9_93
*1438 PHY_EDGE_ROW_0_Left_46
*1439 PHY_EDGE_ROW_0_Right_0
*1440 PHY_EDGE_ROW_10_Left_56
*1441 PHY_EDGE_ROW_10_Right_10
*1442 PHY_EDGE_ROW_11_Left_57
*1443 PHY_EDGE_ROW_11_Right_11
*1444 PHY_EDGE_ROW_12_Left_58
*1445 PHY_EDGE_ROW_12_Right_12
*1446 PHY_EDGE_ROW_13_Left_59
*1447 PHY_EDGE_ROW_13_Right_13
*1448 PHY_EDGE_ROW_14_Left_60
*1449 PHY_EDGE_ROW_14_Right_14
*1450 PHY_EDGE_ROW_15_Left_61
*1451 PHY_EDGE_ROW_15_Right_15
*1452 PHY_EDGE_ROW_16_Left_62
*1453 PHY_EDGE_ROW_16_Right_16
*1454 PHY_EDGE_ROW_17_Left_63
*1455 PHY_EDGE_ROW_17_Right_17
*1456 PHY_EDGE_ROW_18_Left_64
*1457 PHY_EDGE_ROW_18_Right_18
*1458 PHY_EDGE_ROW_19_Left_65
*1459 PHY_EDGE_ROW_19_Right_19
*1460 PHY_EDGE_ROW_1_Left_47
*1461 PHY_EDGE_ROW_1_Right_1
*1462 PHY_EDGE_ROW_20_Left_66
*1463 PHY_EDGE_ROW_20_Right_20
*1464 PHY_EDGE_ROW_21_Left_67
*1465 PHY_EDGE_ROW_21_Right_21
*1466 PHY_EDGE_ROW_22_Left_68
*1467 PHY_EDGE_ROW_22_Right_22
*1468 PHY_EDGE_ROW_23_Left_69
*1469 PHY_EDGE_ROW_23_Right_23
*1470 PHY_EDGE_ROW_24_Left_70
*1471 PHY_EDGE_ROW_24_Right_24
*1472 PHY_EDGE_ROW_25_Left_71
*1473 PHY_EDGE_ROW_25_Right_25
*1474 PHY_EDGE_ROW_26_Left_72
*1475 PHY_EDGE_ROW_26_Right_26
*1476 PHY_EDGE_ROW_27_Left_73
*1477 PHY_EDGE_ROW_27_Right_27
*1478 PHY_EDGE_ROW_28_Left_74
*1479 PHY_EDGE_ROW_28_Right_28
*1480 PHY_EDGE_ROW_29_Left_75
*1481 PHY_EDGE_ROW_29_Right_29
*1482 PHY_EDGE_ROW_2_Left_48
*1483 PHY_EDGE_ROW_2_Right_2
*1484 PHY_EDGE_ROW_30_Left_76
*1485 PHY_EDGE_ROW_30_Right_30
*1486 PHY_EDGE_ROW_31_Left_77
*1487 PHY_EDGE_ROW_31_Right_31
*1488 PHY_EDGE_ROW_32_Left_78
*1489 PHY_EDGE_ROW_32_Right_32
*1490 PHY_EDGE_ROW_33_Left_79
*1491 PHY_EDGE_ROW_33_Right_33
*1492 PHY_EDGE_ROW_34_Left_80
*1493 PHY_EDGE_ROW_34_Right_34
*1494 PHY_EDGE_ROW_35_Left_81
*1495 PHY_EDGE_ROW_35_Right_35
*1496 PHY_EDGE_ROW_36_Left_82
*1497 PHY_EDGE_ROW_36_Right_36
*1498 PHY_EDGE_ROW_37_Left_83
*1499 PHY_EDGE_ROW_37_Right_37
*1500 PHY_EDGE_ROW_38_Left_84
*1501 PHY_EDGE_ROW_38_Right_38
*1502 PHY_EDGE_ROW_39_Left_85
*1503 PHY_EDGE_ROW_39_Right_39
*1504 PHY_EDGE_ROW_3_Left_49
*1505 PHY_EDGE_ROW_3_Right_3
*1506 PHY_EDGE_ROW_40_Left_86
*1507 PHY_EDGE_ROW_40_Right_40
*1508 PHY_EDGE_ROW_41_Left_87
*1509 PHY_EDGE_ROW_41_Right_41
*1510 PHY_EDGE_ROW_42_Left_88
*1511 PHY_EDGE_ROW_42_Right_42
*1512 PHY_EDGE_ROW_43_Left_89
*1513 PHY_EDGE_ROW_43_Right_43
*1514 PHY_EDGE_ROW_44_Left_90
*1515 PHY_EDGE_ROW_44_Right_44
*1516 PHY_EDGE_ROW_45_Left_91
*1517 PHY_EDGE_ROW_45_Right_45
*1518 PHY_EDGE_ROW_4_Left_50
*1519 PHY_EDGE_ROW_4_Right_4
*1520 PHY_EDGE_ROW_5_Left_51
*1521 PHY_EDGE_ROW_5_Right_5
*1522 PHY_EDGE_ROW_6_Left_52
*1523 PHY_EDGE_ROW_6_Right_6
*1524 PHY_EDGE_ROW_7_Left_53
*1525 PHY_EDGE_ROW_7_Right_7
*1526 PHY_EDGE_ROW_8_Left_54
*1527 PHY_EDGE_ROW_8_Right_8
*1528 PHY_EDGE_ROW_9_Left_55
*1529 PHY_EDGE_ROW_9_Right_9
*1530 TAP_TAPCELL_ROW_0_100
*1531 TAP_TAPCELL_ROW_0_92
*1532 TAP_TAPCELL_ROW_0_93
*1533 TAP_TAPCELL_ROW_0_94
*1534 TAP_TAPCELL_ROW_0_95
*1535 TAP_TAPCELL_ROW_0_96
*1536 TAP_TAPCELL_ROW_0_97
*1537 TAP_TAPCELL_ROW_0_98
*1538 TAP_TAPCELL_ROW_0_99
*1539 TAP_TAPCELL_ROW_10_141
*1540 TAP_TAPCELL_ROW_10_142
*1541 TAP_TAPCELL_ROW_10_143
*1542 TAP_TAPCELL_ROW_10_144
*1543 TAP_TAPCELL_ROW_10_145
*1544 TAP_TAPCELL_ROW_11_146
*1545 TAP_TAPCELL_ROW_11_147
*1546 TAP_TAPCELL_ROW_11_148
*1547 TAP_TAPCELL_ROW_11_149
*1548 TAP_TAPCELL_ROW_12_150
*1549 TAP_TAPCELL_ROW_12_151
*1550 TAP_TAPCELL_ROW_12_152
*1551 TAP_TAPCELL_ROW_12_153
*1552 TAP_TAPCELL_ROW_12_154
*1553 TAP_TAPCELL_ROW_13_155
*1554 TAP_TAPCELL_ROW_13_156
*1555 TAP_TAPCELL_ROW_13_157
*1556 TAP_TAPCELL_ROW_13_158
*1557 TAP_TAPCELL_ROW_14_159
*1558 TAP_TAPCELL_ROW_14_160
*1559 TAP_TAPCELL_ROW_14_161
*1560 TAP_TAPCELL_ROW_14_162
*1561 TAP_TAPCELL_ROW_14_163