*SPEF "ieee 1481-1999"
*DESIGN "ALU"
*DATE "19:55:06 Tuesday October 28, 2025"
*VENDOR "The OpenROAD Project"
*PROGRAM "OpenROAD"
*VERSION "24Q3-9297-g8daed51a74"
*DESIGN_FLOW "NAME_SCOPE LOCAL" "PIN_CAP NONE"
*DIVIDER /
*DELIMITER :
*BUS_DELIMITER []
*T_UNIT 1 NS
*C_UNIT 1 PF
*R_UNIT 1 OHM
*L_UNIT 1 HENRY

*NAME_MAP
*1 ALU_control[0]
*2 ALU_control[1]
*3 ALU_control[2]
*4 ALU_control[3]
*5 net37
*6 net38
*7 net39
*8 net40
*9 net41
*10 net42
*11 net43
*12 net44
*13 net45
*14 net46
*15 net47
*16 net48
*17 net49
*18 net50
*19 net51
*20 net52
*21 SrcA[0]
*22 SrcA[10]
*23 SrcA[11]
*24 SrcA[12]
*25 SrcA[13]
*26 SrcA[14]
*27 SrcA[15]
*28 SrcA[1]
*29 SrcA[2]
*30 SrcA[3]
*31 SrcA[4]
*32 SrcA[5]
*33 SrcA[6]
*34 SrcA[7]
*35 SrcA[8]
*36 SrcA[9]
*37 SrcB[0]
*38 SrcB[10]
*39 SrcB[11]
*40 SrcB[12]
*41 SrcB[13]
*42 SrcB[14]
*43 SrcB[15]
*44 SrcB[1]
*45 SrcB[2]
*46 SrcB[3]
*47 SrcB[4]
*48 SrcB[5]
*49 SrcB[6]
*50 SrcB[7]
*51 SrcB[8]
*52 SrcB[9]
*53 _0000_
*54 _0001_
*55 _0002_
*56 _0003_
*57 _0004_
*58 _0005_
*59 _0006_
*60 _0007_
*61 _0008_
*62 _0009_
*63 _0010_
*64 _0011_
*65 _0012_
*66 _0013_
*67 _0014_
*68 _0015_
*69 _0016_
*70 _0017_
*71 _0018_
*72 _0019_
*73 _0020_
*74 _0021_
*75 _0022_
*76 net34
*77 _0024_
*78 _0025_
*79 _0026_
*80 _0027_
*81 _0028_
*82 _0029_
*83 _0030_
*84 ALU_result[9]
*85 _0032_
*86 _0033_
*87 _0034_
*88 _0035_
*89 _0036_
*90 _0037_
*91 _0038_
*92 _0039_
*93 _0040_
*94 _0041_
*95 _0042_
*96 _0043_
*97 _0044_
*98 _0045_
*99 _0046_
*100 _0047_
*101 _0048_
*102 _0049_
*103 _0050_
*104 _0051_
*105 _0052_
*106 _0053_
*107 _0054_
*108 _0055_
*109 _0056_
*110 _0057_
*111 _0058_
*112 _0059_
*113 _0060_
*114 _0061_
*115 _0062_
*116 _0063_
*117 _0064_
*118 _0065_
*119 _0066_
*120 _0067_
*121 _0068_
*122 _0069_
*123 _0070_
*124 _0071_
*125 _0072_
*126 _0073_
*127 _0074_
*128 _0075_
*129 _0076_
*130 _0077_
*131 _0078_
*132 _0079_
*133 _0080_
*134 _0081_
*135 _0082_
*136 _0083_
*137 _0084_
*138 _0085_
*139 _0086_
*140 _0087_
*141 _0088_
*142 _0089_
*143 _0090_
*144 _0091_
*145 _0092_
*146 _0093_
*147 _0094_
*148 _0095_
*149 _0096_
*150 _0097_
*151 _0098_
*152 _0099_
*153 _0100_
*154 _0101_
*155 _0102_
*156 _0103_
*157 _0104_
*158 _0105_
*159 _0106_
*160 _0107_
*161 _0108_
*162 _0109_
*163 _0110_
*164 _0111_
*165 _0112_
*166 _0113_
*167 _0114_
*168 _0115_
*169 _0116_
*170 _0117_
*171 _0118_
*172 _0119_
*173 _0120_
*174 _0121_
*175 _0122_
*176 _0123_
*177 _0124_
*178 _0125_
*179 _0126_
*180 _0127_
*181 _0128_
*182 _0129_
*183 _0130_
*184 zero
*185 _0132_
*186 ALU_result[8]
*187 ALU_result[7]
*188 ALU_result[6]
*189 ALU_result[5]
*190 ALU_result[4]
*191 ALU_result[3]
*192 ALU_result[2]
*193 ALU_result[1]
*194 ALU_result[15]
*195 ALU_result[14]
*196 ALU_result[13]
*197 ALU_result[12]
*198 ALU_result[11]
*199 ALU_result[10]
*200 ALU_result[0]
*201 _0148_
*202 net36
*203 _0150_
*204 net35
*205 _0152_
*206 net33
*207 net32
*208 net31
*209 _0156_
*210 net30
*211 _0158_
*212 net29
*213 net28
*214 net27
*215 net26
*216 net25
*217 _0164_
*218 _0165_
*219 net24
*220 _0167_
*221 _0168_
*222 net23
*223 net22
*224 net21
*225 net20
*226 _0173_
*227 net19
*228 _0175_
*229 _0176_
*230 _0177_
*231 _0178_
*232 _0179_
*233 net18
*234 _0181_
*235 _0182_
*236 _0183_
*237 _0184_
*238 net17
*239 _0186_
*240 _0187_
*241 net16
*242 _0189_
*243 _0190_
*244 net15
*245 _0192_
*246 net14
*247 _0194_
*248 _0195_
*249 net13
*250 _0197_
*251 net12
*252 _0199_
*253 _0200_
*254 _0201_
*255 _0202_
*256 net11
*257 net10
*258 _0205_
*259 net9
*260 _0207_
*261 _0208_
*262 net8
*263 net7
*264 _0211_
*265 _0212_
*266 _0213_
*267 _0214_
*268 _0215_
*269 net6
*270 _0217_
*271 _0218_
*272 _0219_
*273 _0220_
*274 _0221_
*275 net5
*276 _0223_
*277 net4
*278 _0225_
*279 _0226_
*280 _0227_
*281 _0228_
*282 _0229_
*283 _0230_
*284 _0231_
*285 _0232_
*286 _0233_
*287 _0234_
*288 _0235_
*289 _0236_
*290 _0237_
*291 net3
*292 _0239_
*293 _0240_
*294 _0241_
*295 net2
*296 _0243_
*297 _0244_
*298 _0245_
*299 _0246_
*300 _0247_
*301 _0248_
*302 _0249_
*303 _0250_
*304 _0251_
*305 _0252_
*306 _0253_
*307 _0254_
*308 _0255_
*309 _0256_
*310 _0257_
*311 _0258_
*312 _0259_
*313 _0260_
*314 _0261_
*315 _0262_
*316 _0263_
*317 _0264_
*318 _0265_
*319 _0266_
*320 _0267_
*321 _0268_
*322 _0269_
*323 _0270_
*324 _0271_
*325 _0272_
*326 _0273_
*327 _0274_
*328 net1
*329 _0276_
*330 _0277_
*331 _0278_
*332 _0279_
*333 _0280_
*334 _0281_
*335 _0282_
*336 _0283_
*337 _0284_
*338 _0285_
*339 _0286_
*341 _0288_
*342 _0289_
*343 _0290_
*344 _0291_
*345 _0292_
*346 _0293_
*347 _0294_
*348 _0295_
*349 _0296_
*350 _0297_
*351 _0298_
*352 _0299_
*353 _0300_
*354 _0301_
*355 _0302_
*356 _0303_
*357 _0304_
*358 _0305_
*359 _0306_
*360 _0307_
*361 _0308_
*362 _0309_
*363 _0310_
*364 _0311_
*365 _0312_
*366 _0313_
*367 _0314_
*368 _0315_
*369 _0316_
*370 _0317_
*371 _0318_
*372 _0319_
*373 _0320_
*374 _0321_
*375 _0322_
*376 _0323_
*377 _0324_
*378 _0325_
*379 _0326_
*380 _0327_
*381 _0328_
*382 _0329_
*383 _0330_
*384 _0331_
*385 _0332_
*386 _0333_
*387 _0334_
*388 _0335_
*389 _0336_
*390 _0337_
*391 _0338_
*392 _0339_
*393 _0340_
*394 _0341_
*395 _0342_
*397 _0344_
*398 _0345_
*399 _0346_
*400 _0347_
*401 _0348_
*402 _0349_
*403 _0350_
*404 _0351_
*405 _0352_
*406 _0353_
*407 _0354_
*408 _0355_
*409 _0356_
*410 _0357_
*411 _0358_
*412 _0359_
*413 _0360_
*414 _0361_
*415 _0362_
*416 _0363_
*417 _0364_
*418 _0365_
*419 _0366_
*420 _0367_
*421 _0368_
*422 _0369_
*423 _0370_
*424 _0371_
*425 _0372_
*426 _0373_
*427 _0374_
*428 _0375_
*429 _0376_
*430 _0377_
*431 _0378_
*432 _0379_
*433 _0380_
*434 _0381_
*435 _0382_
*436 _0383_
*437 _0384_
*438 _0385_
*439 _0386_
*440 _0387_
*441 _0388_
*442 _0389_
*443 _0390_
*444 _0391_
*445 _0392_
*446 _0393_
*447 _0394_
*448 _0395_
*449 _0396_
*450 _0397_
*451 _0398_
*452 _0399_
*453 _0400_
*454 _0401_
*455 _0402_
*456 _0403_
*457 _0404_
*458 _0405_
*459 _0406_
*460 _0407_
*461 _0408_
*462 _0409_
*463 _0410_
*464 _0411_
*465 _0412_
*466 _0413_
*467 _0414_
*468 _0415_
*469 _0416_
*470 _0417_
*471 _0418_
*472 _0419_
*473 _0420_
*474 _0421_
*475 _0422_
*476 _0423_
*477 _0424_
*478 _0425_
*479 _0426_
*480 _0427_
*481 _0428_
*482 _0429_
*483 _0430_
*484 _0431_
*485 _0432_
*486 _0433_
*487 _0434_
*488 _0435_
*489 _0436_
*490 _0437_
*491 _0438_
*492 _0439_
*493 _0440_
*494 _0441_
*495 _0442_
*496 _0443_
*497 _0444_
*498 _0445_
*499 _0446_
*500 _0447_
*501 _0448_
*502 _0449_
*503 _0450_
*504 _0451_
*505 _0452_
*506 _0453_
*507 _0454_
*508 _0455_
*509 _0456_
*510 _0457_
*511 _0458_
*512 _0459_
*513 _0460_
*514 _0461_
*515 _0462_
*516 _0463_
*517 _0464_
*518 _0465_
*519 _0466_
*520 _0467_
*521 _0468_
*522 _0469_
*523 _0470_
*524 _0471_
*525 _0472_
*526 _0473_
*527 _0474_
*528 _0475_
*529 _0476_
*530 _0477_
*531 _0478_
*532 _0479_
*533 _0480_
*534 _0481_
*535 _0482_
*536 _0483_
*537 _0484_
*538 _0485_
*539 _0486_
*540 _0487_
*541 _0488_
*542 _0489_
*543 _0490_
*544 _0491_
*545 _0492_
*546 _0493_
*547 _0494_
*548 _0495_
*549 _0496_
*550 _0497_
*551 _0498_
*552 _0499_
*553 _0500_
*554 _0501_
*555 _0502_
*556 _0503_
*557 _0504_
*558 _0505_
*559 _0506_
*560 _0507_
*561 _0508_
*562 _0509_
*563 _0510_
*564 _0511_
*565 _0512_
*566 _0513_
*567 _0514_
*568 _0515_
*569 _0516_
*570 _0517_
*571 _0518_
*572 _0519_
*573 _0520_
*574 _0521_
*575 _0522_
*576 _0523_
*577 _0524_
*578 _0525_
*579 _0526_
*580 _0527_
*581 _0528_
*582 _0529_
*583 _0530_
*584 _0531_
*585 _0532_
*586 _0533_
*587 _0534_
*588 _0535_
*589 _0536_
*590 _0537_
*591 _0538_
*592 _0539_
*593 _0540_
*594 _0541_
*595 _0542_
*596 _0543_
*597 _0544_
*598 _0545_
*599 _0546_
*600 _0547_
*601 _0548_
*602 _0549_
*603 _0550_
*604 _0551_
*605 _0552_
*606 _0553_
*607 _0554_
*608 _0555_
*609 _0556_
*610 _0557_
*611 _0558_
*612 _0559_
*613 _0560_
*614 _0561_
*615 _0562_
*616 _0563_
*617 _0564_
*618 _0565_
*619 _0566_
*620 _0567_
*621 _0568_
*622 _0569_
*623 _0570_
*624 _0571_
*625 _0572_
*626 _0573_
*627 _0574_
*628 _0575_
*629 _0576_
*630 _0577_
*631 _0578_
*632 _0579_
*633 _0580_
*634 _0581_
*635 _0582_
*636 _0583_
*637 _0584_
*638 _0585_
*639 _0586_
*640 _0587_
*641 _0588_
*642 _0589_
*643 _0590_
*644 _0591_
*645 _0592_
*646 _0593_
*647 _0594_
*648 _0595_
*649 _0596_
*650 _0597_
*651 _0598_
*652 _0599_
*653 _0600_
*654 _0601_
*655 _0602_
*656 _0603_
*657 _0604_
*658 _0605_
*659 _0606_
*660 _0607_
*661 _0608_
*662 _0609_
*663 _0610_
*664 _0611_
*665 _0612_
*666 _0613_
*667 _0614_
*668 _0615_
*669 _0616_
*670 _0617_
*671 _0618_
*672 _0619_
*673 _0620_
*674 _0621_
*675 _0622_
*676 _0623_
*677 _0624_
*678 _0625_
*679 _0626_
*680 _0627_
*681 _0628_
*682 _0629_
*683 _0630_
*684 _0631_
*685 _0632_
*686 _0633_
*687 _0634_
*688 net53
*689 net62
*690 net55
*691 net56
*692 net57
*693 net58
*694 net59
*695 net60
*696 net61
*697 net63
*698 TAP_TAPCELL_ROW_12_54
*699 _0636_
*700 TAP_TAPCELL_ROW_12_53
*701 TAP_TAPCELL_ROW_12_52
*702 TAP_TAPCELL_ROW_11_51
*703 TAP_TAPCELL_ROW_11_50
*704 _0641_
*705 TAP_TAPCELL_ROW_11_49
*706 TAP_TAPCELL_ROW_11_48
*707 TAP_TAPCELL_ROW_10_47
*708 TAP_TAPCELL_ROW_10_46
*709 TAP_TAPCELL_ROW_10_45
*710 TAP_TAPCELL_ROW_10_44
*711 TAP_TAPCELL_ROW_9_43
*712 TAP_TAPCELL_ROW_9_42
*713 TAP_TAPCELL_ROW_9_41
*714 TAP_TAPCELL_ROW_9_40
*715 TAP_TAPCELL_ROW_8_39
*716 TAP_TAPCELL_ROW_8_38
*717 _0654_
*718 TAP_TAPCELL_ROW_8_37
*719 _0656_
*720 _0657_
*721 TAP_TAPCELL_ROW_8_36
*722 _0659_
*723 TAP_TAPCELL_ROW_7_35
*724 TAP_TAPCELL_ROW_7_34
*725 TAP_TAPCELL_ROW_7_33
*726 TAP_TAPCELL_ROW_7_32
*727 _0664_
*728 TAP_TAPCELL_ROW_6_31
*729 _0666_
*730 _0667_
*731 TAP_TAPCELL_ROW_6_30
*732 _0669_
*733 TAP_TAPCELL_ROW_6_29
*734 _0671_
*735 TAP_TAPCELL_ROW_6_28
*736 TAP_TAPCELL_ROW_5_27
*737 TAP_TAPCELL_ROW_5_26
*738 _0675_
*739 _0676_
*740 _0677_
*741 _0678_
*742 TAP_TAPCELL_ROW_5_25
*743 _0680_
*744 _0681_
*745 _0682_
*746 _0683_
*747 _0684_
*748 TAP_TAPCELL_ROW_5_24
*749 _0686_
*750 _0687_
*751 TAP_TAPCELL_ROW_4_23
*752 TAP_TAPCELL_ROW_4_22
*753 TAP_TAPCELL_ROW_4_21
*754 _0691_
*755 TAP_TAPCELL_ROW_4_20
*756 _0693_
*757 _0694_
*758 _0695_
*759 _0696_
*760 _0697_
*761 _0698_
*762 _0699_
*763 _0700_
*764 _0701_
*765 TAP_TAPCELL_ROW_3_19
*766 _0703_
*767 _0704_
*768 _0705_
*769 _0706_
*770 _0707_
*771 _0708_
*772 _0709_
*773 TAP_TAPCELL_ROW_3_18
*774 _0711_
*775 _0712_
*776 _0713_
*777 _0714_
*778 _0715_
*779 TAP_TAPCELL_ROW_3_17
*780 _0717_
*781 _0718_
*782 _0719_
*783 _0720_
*784 _0721_
*785 TAP_TAPCELL_ROW_3_16
*786 _0723_
*787 _0724_
*788 _0725_
*789 _0726_
*790 TAP_TAPCELL_ROW_2_15
*791 _0728_
*792 _0729_
*793 _0730_
*794 _0731_
*795 _0732_
*796 TAP_TAPCELL_ROW_2_14
*797 _0734_
*798 _0735_
*799 _0736_
*800 _0737_
*801 TAP_TAPCELL_ROW_2_13
*802 _0739_
*803 _0740_
*804 _0741_
*805 _0742_
*806 _0743_
*807 _0744_
*808 _0745_
*809 _0746_
*810 _0747_
*811 _0748_
*812 TAP_TAPCELL_ROW_2_12
*813 TAP_TAPCELL_ROW_1_11
*814 _0751_
*815 TAP_TAPCELL_ROW_1_10
*816 _0753_
*817 _0754_
*818 TAP_TAPCELL_ROW_1_9
*819 TAP_TAPCELL_ROW_1_8
*820 _0757_
*821 _0758_
*822 _0759_
*823 _0760_
*824 _0761_
*825 TAP_TAPCELL_ROW_0_7
*826 _0763_
*827 _0764_
*828 _0765_
*829 _0766_
*830 _0767_
*831 TAP_TAPCELL_ROW_0_6
*832 _0769_
*833 TAP_TAPCELL_ROW_0_5
*834 _0771_
*835 _0772_
*836 _0773_
*837 _0774_
*838 _0775_
*839 _0776_
*840 _0777_
*841 _0778_
*842 _0779_
*843 _0780_
*844 _0781_
*845 _0782_
*846 _0783_
*847 TAP_TAPCELL_ROW_0_4
*848 _0785_
*849 _0786_
*850 _0787_
*851 TAP_TAPCELL_ROW_0_3
*852 _0789_
*853 _0790_
*854 _0791_
*855 _0792_
*856 _0793_
*857 _0794_
*858 _0795_
*859 _0796_
*860 _0797_
*861 _0798_
*862 _0799_
*863 _0800_
*864 _0801_
*865 _0802_
*866 _0803_
*867 _0804_
*868 _0805_
*869 _0806_
*870 _0807_
*871 _0808_
*872 _0809_
*873 _0810_
*874 _0811_
*875 _0812_
*876 _0813_
*877 _0814_
*878 _0815_
*879 _0816_
*880 _0817_
*881 _0818_
*882 _0819_
*883 _0820_
*884 _0821_
*885 _0822_
*886 TAP_TAPCELL_ROW_0_2
*887 _0824_
*888 _0825_
*889 _0826_
*890 _0827_
*891 _0828_
*892 _0829_
*893 _0830_
*894 _0831_
*895 _0832_
*896 _0833_
*897 _0834_
*898 TAP_TAPCELL_ROW_0_1
*899 _0836_
*900 _0837_
*901 _0838_
*902 _0839_
*903 _0840_
*904 _0841_
*905 _0842_
*906 _0843_
*907 _0844_
*908 _0845_
*909 _0846_
*910 _0847_
*911 _0848_
*912 _0849_
*913 _0850_
*914 _0851_
*915 _0852_
*916 _0853_
*917 _0854_
*918 _0855_
*919 _0856_
*920 _0857_
*921 _0858_
*922 _0859_
*923 _0860_
*924 _0861_
*925 _0862_
*926 _0863_
*927 _0864_
*928 _0865_
*929 _0866_
*930 _0867_
*931 _0868_
*932 _0869_
*933 _0870_
*934 _0871_
*935 _0872_
*936 _0873_
*937 _0874_
*938 _0875_
*939 _0876_
*940 _0877_
*941 _0878_
*942 _0879_
*943 _0880_
*944 _0881_
*945 _0882_
*946 _0883_
*947 _0884_
*948 _0885_
*949 _0886_
*950 _0887_
*951 _0888_
*952 _0889_
*953 _0890_
*954 _0891_
*955 _0892_
*956 TAP_TAPCELL_ROW_0_0
*957 _0894_
*958 _0895_
*959 _0896_
*960 _0897_
*961 _0898_
*962 _0899_
*963 _0900_
*964 _0901_
*965 _0902_
*966 _0903_
*967 _0904_
*968 _0905_
*969 _0906_
*970 _0907_
*971 _0908_
*972 _0909_
*973 _0910_
*974 _0911_
*975 _0912_
*976 _0913_
*977 _0914_
*978 _0915_
*979 _0916_
*980 _0917_
*981 _0918_
*982 _0919_
*983 _0920_
*984 _0921_
*985 _0922_
*986 _0923_
*987 _0924_
*988 _0925_
*989 _0926_
*990 _0927_
*991 _0928_
*992 _0929_
*993 _0930_
*994 _0931_
*995 _0932_
*996 _0933_
*997 _0934_
*998 _0935_
*999 _0936_
*1000 _0937_
*1001 _0938_
*1002 _0939_
*1003 _0940_
*1004 _0941_
*1005 _0942_
*1006 _0943_
*1007 _0944_
*1008 _0945_
*1009 _0946_
*1010 _0947_
*1011 _0948_
*1012 _0949_
*1013 _0950_
*1014 _0951_
*1015 _0952_
*1016 _0953_
*1017 _0954_
*1018 _0955_
*1019 _0956_
*1020 _0957_
*1021 _0958_
*1022 _0959_
*1023 _0960_
*1024 _0961_
*1025 _0962_
*1026 _0963_
*1027 _0964_
*1028 _0965_
*1029 _0966_
*1030 _0967_
*1031 _0968_
*1032 _0969_
*1033 _0970_
*1034 _0971_
*1035 _0972_
*1036 _0973_
*1037 _0974_
*1038 _0975_
*1039 _0976_
*1040 _0977_
*1041 _0978_
*1042 _0979_
*1043 _0980_
*1044 _0981_
*1045 _0982_
*1046 _0983_
*1047 _0984_
*1048 _0985_
*1049 _0986_
*1050 _0987_
*1051 _0988_
*1052 _0989_
*1053 _0990_
*1054 _0991_
*1055 _0992_
*1056 _0993_
*1057 _0994_
*1058 _0995_
*1059 _0996_
*1060 _0997_
*1061 _0998_
*1062 _0999_
*1063 _1000_
*1064 _1001_
*1065 _1002_
*1066 _1003_
*1067 _1004_
*1068 _1005_
*1069 _1006_
*1070 _1007_
*1071 _1008_
*1072 _1009_
*1073 _1010_
*1074 _1011_
*1075 _1012_
*1076 _1013_
*1077 _1014_
*1078 _1015_
*1079 _1016_
*1080 _1017_
*1081 _1018_
*1082 _1019_
*1083 _1020_
*1084 _1021_
*1085 _1022_
*1086 _1023_
*1087 _1024_
*1088 _1025_
*1089 _1026_
*1090 _1027_
*1091 _1028_
*1092 _1029_
*1093 _1030_
*1094 _1031_
*1095 _1032_
*1096 _1033_
*1097 _1034_
*1098 _1035_
*1099 _1036_
*1100 _1037_
*1101 _1038_
*1102 _1039_
*1103 _1040_
*1104 _1041_
*1105 _1042_
*1106 _1043_
*1107 _1044_
*1108 _1045_
*1109 _1046_
*1110 _1047_
*1111 _1048_
*1112 _1049_
*1113 _1050_
*1114 _1051_
*1115 _1052_
*1116 _1053_
*1117 _1054_
*1118 _1055_
*1119 _1056_
*1120 _1057_
*1121 _1058_
*1122 _1059_
*1123 _1060_
*1124 _1061_
*1125 _1062_
*1126 _1063_
*1127 _1064_
*1128 _1065_
*1129 _1066_
*1130 _1067_
*1131 _1068_
*1132 _1069_
*1133 _1070_
*1134 _1071_
*1135 _1072_
*1136 _1073_
*1137 _1074_
*1138 _1075_
*1139 _1076_
*1140 _1077_
*1141 _1078_
*1142 _1079_
*1143 _1080_
*1144 _1081_
*1145 _1082_
*1146 _1083_
*1147 _1084_
*1148 _1085_
*1149 _1086_
*1150 _1087_
*1151 _1088_
*1152 _1089_
*1153 _1090_
*1154 _1091_
*1155 _1092_
*1156 _1093_
*1157 _1094_
*1158 _1095_
*1159 _1096_
*1160 _1097_
*1161 _1098_
*1162 _1099_
*1163 _1100_
*1164 _1101_
*1165 _1102_
*1166 _1103_
*1167 _1104_
*1168 _1105_
*1169 _1106_
*1170 _1107_
*1171 _1108_
*1172 _1109_
*1173 _1110_
*1174 _1111_
*1175 _1112_
*1176 _1113_
*1177 _1114_
*1178 _1115_
*1179 _1116_
*1180 _1117_
*1181 _1118_
*1182 _1119_
*1183 _1120_
*1184 _1121_
*1185 _1122_
*1186 _1123_
*1187 _1124_
*1188 _1125_
*1189 _1126_
*1190 _1127_
*1191 _1128_
*1192 _1129_
*1193 _1130_
*1194 _1131_
*1195 _1132_
*1196 _1133_
*1197 _1134_
*1198 _1135_
*1199 _1136_
*1200 _1137_
*1201 _1138_
*1202 _1139_
*1203 _1140_
*1204 _1141_
*1205 _1142_
*1206 _1143_
*1207 _1144_
*1208 _1145_
*1209 _1146_
*1210 _1147_
*1211 _1148_
*1212 _1149_
*1213 _1150_
*1214 _1151_
*1215 _1152_
*1216 _1153_
*1217 _1154_
*1218 _1155_
*1219 _1156_
*1220 _1157_
*1221 _1158_
*1222 _1159_
*1223 _1160_
*1224 _1161_
*1225 _1162_
*1226 _1163_
*1227 _1164_
*1228 _1165_
*1229 _1166_
*1230 _1167_
*1231 _1168_
*1232 _1169_
*1233 _1170_
*1234 _1171_
*1235 _1172_
*1236 _1173_
*1237 _1174_
*1238 _1175_
*1239 _1176_
*1240 _1177_
*1241 _1178_
*1242 _1179_
*1243 _1180_
*1244 _1181_
*1245 _1182_
*1246 _1183_
*1247 _1184_
*1248 _1185_
*1249 _1186_
*1250 _1187_
*1251 _1188_
*1252 _1189_
*1253 _1190_
*1254 _1191_
*1255 _1192_
*1256 _1193_
*1257 _1194_
*1258 _1195_
*1259 _1196_
*1260 _1197_
*1261 _1198_
*1262 _1199_
*1263 _1200_
*1264 _1201_
*1265 _1202_
*1266 _1203_
*1267 _1204_
*1268 _1205_
*1269 _1206_
*1270 _1207_
*1271 _1208_
*1272 _1209_
*1273 _1210_
*1274 _1211_
*1275 _1212_
*1276 _1213_
*1277 _1214_
*1278 _1215_
*1279 _1216_
*1280 _1217_
*1281 _1218_
*1282 _1219_
*1283 _1220_
*1284 _1221_
*1285 _1222_
*1286 _1223_
*1287 _1224_
*1288 _1225_
*1289 _1226_
*1290 _1227_
*1291 _1228_
*1292 _1229_
*1293 _1230_
*1294 _1231_
*1295 _1232_
*1296 _1233_
*1297 _1234_
*1298 _1235_
*1299 TAP_TAPCELL_ROW_12_55
*1300 TAP_TAPCELL_ROW_13_56
*1301 TAP_TAPCELL_ROW_13_57
*1302 TAP_TAPCELL_ROW_13_58
*1303 TAP_TAPCELL_ROW_13_59
*1304 TAP_TAPCELL_ROW_14_60
*1305 TAP_TAPCELL_ROW_14_61
*1306 TAP_TAPCELL_ROW_14_62
*1307 TAP_TAPCELL_ROW_14_63
*1308 TAP_TAPCELL_ROW_15_64
*1309 TAP_TAPCELL_ROW_15_65
*1310 TAP_TAPCELL_ROW_15_66
*1311 TAP_TAPCELL_ROW_15_67
*1312 TAP_TAPCELL_ROW_16_68
*1313 TAP_TAPCELL_ROW_16_69
*1314 TAP_TAPCELL_ROW_16_70
*1315 TAP_TAPCELL_ROW_16_71
*1316 TAP_TAPCELL_ROW_17_72
*1317 TAP_TAPCELL_ROW_17_73
*1318 TAP_TAPCELL_ROW_17_74
*1319 TAP_TAPCELL_ROW_17_75
*1320 TAP_TAPCELL_ROW_18_76
*1321 TAP_TAPCELL_ROW_18_77
*1322 TAP_TAPCELL_ROW_18_78
*1323 TAP_TAPCELL_ROW_18_79
*1324 TAP_TAPCELL_ROW_19_80
*1325 TAP_TAPCELL_ROW_19_81
*1326 TAP_TAPCELL_ROW_19_82
*1327 TAP_TAPCELL_ROW_19_83
*1328 TAP_TAPCELL_ROW_20_84
*1329 TAP_TAPCELL_ROW_20_85
*1330 TAP_TAPCELL_ROW_20_86
*1331 TAP_TAPCELL_ROW_20_87
*1332 TAP_TAPCELL_ROW_21_88
*1333 TAP_TAPCELL_ROW_21_89
*1334 TAP_TAPCELL_ROW_21_90
*1335 TAP_TAPCELL_ROW_21_91
*1336 TAP_TAPCELL_ROW_22_92
*1337 TAP_TAPCELL_ROW_22_93
*1338 TAP_TAPCELL_ROW_22_94
*1339 TAP_TAPCELL_ROW_22_95
*1340 TAP_TAPCELL_ROW_23_96
*1341 TAP_TAPCELL_ROW_23_97
*1342 TAP_TAPCELL_ROW_23_98
*1343 TAP_TAPCELL_ROW_23_99
*1344 TAP_TAPCELL_ROW_24_100
*1345 TAP_TAPCELL_ROW_24_101
*1346 TAP_TAPCELL_ROW_24_102
*1347 TAP_TAPCELL_ROW_24_103
*1348 TAP_TAPCELL_ROW_25_104
*1349 TAP_TAPCELL_ROW_25_105
*1350 TAP_TAPCELL_ROW_25_106
*1351 TAP_TAPCELL_ROW_25_107
*1352 TAP_TAPCELL_ROW_26_108
*1353 TAP_TAPCELL_ROW_26_109
*1354 TAP_TAPCELL_ROW_26_110
*1355 TAP_TAPCELL_ROW_26_111
*1356 TAP_TAPCELL_ROW_27_112
*1357 TAP_TAPCELL_ROW_27_113
*1358 TAP_TAPCELL_ROW_27_114
*1359 TAP_TAPCELL_ROW_27_115
*1360 TAP_TAPCELL_ROW_28_116
*1361 TAP_TAPCELL_ROW_28_117
*1362 TAP_TAPCELL_ROW_28_118
*1363 TAP_TAPCELL_ROW_28_119
*1364 TAP_TAPCELL_ROW_29_120
*1365 TAP_TAPCELL_ROW_29_121
*1366 TAP_TAPCELL_ROW_29_122
*1367 TAP_TAPCELL_ROW_29_123
*1368 TAP_TAPCELL_ROW_30_124
*1369 TAP_TAPCELL_ROW_30_125
*1370 TAP_TAPCELL_ROW_30_126
*1371 TAP_TAPCELL_ROW_30_127
*1372 TAP_TAPCELL_ROW_31_128
*1373 TAP_TAPCELL_ROW_31_129
*1374 TAP_TAPCELL_ROW_31_130
*1375 TAP_TAPCELL_ROW_31_131
*1376 TAP_TAPCELL_ROW_32_132
*1377 TAP_TAPCELL_ROW_32_133
*1378 TAP_TAPCELL_ROW_32_134
*1379 TAP_TAPCELL_ROW_32_135
*1380 TAP_TAPCELL_ROW_33_136
*1381 TAP_TAPCELL_ROW_33_137
*1382 TAP_TAPCELL_ROW_33_138
*1383 TAP_TAPCELL_ROW_33_139
*1384 TAP_TAPCELL_ROW_34_140
*1385 TAP_TAPCELL_ROW_34_141
*1386 TAP_TAPCELL_ROW_34_142
*1387 TAP_TAPCELL_ROW_34_143
*1388 TAP_TAPCELL_ROW_35_144
*1389 TAP_TAPCELL_ROW_35_145
*1390 TAP_TAPCELL_ROW_35_146
*1391 TAP_TAPCELL_ROW_35_147
*1392 TAP_TAPCELL_ROW_36_148
*1393 TAP_TAPCELL_ROW_36_149
*1394 TAP_TAPCELL_ROW_36_150
*1395 TAP_TAPCELL_ROW_36_151
*1396 TAP_TAPCELL_ROW_37_152
*1397 TAP_TAPCELL_ROW_37_153
*1398 TAP_TAPCELL_ROW_37_154
*1399 TAP_TAPCELL_ROW_37_155
*1400 TAP_TAPCELL_ROW_38_156
*1401 TAP_TAPCELL_ROW_38_157
*1402 TAP_TAPCELL_ROW_38_158
*1403 TAP_TAPCELL_ROW_38_159
*1404 TAP_TAPCELL_ROW_39_160
*1405 TAP_TAPCELL_ROW_39_161
*1406 TAP_TAPCELL_ROW_39_162
*1407 TAP_TAPCELL_ROW_39_163
*1408 TAP_TAPCELL_ROW_40_164
*1409 TAP_TAPCELL_ROW_40_165
*1410 TAP_TAPCELL_ROW_40_166
*1411 TAP_TAPCELL_ROW_40_167
*1412 TAP_TAPCELL_ROW_40_168
*1413 TAP_TAPCELL_ROW_40_169
*1414 TAP_TAPCELL_ROW_40_170
*1415 TAP_TAPCELL_ROW_40_171
*1416 input1
*1417 input2
*1418 input3
*1419 input4
*1420 input5
*1421 input6
*1422 input7
*1423 input8
*1424 input9
*1425 input10
*1426 input11
*1427 input12
*1428 input13
*1429 input14
*1430 input15
*1431 input16
*1432 input17
*1433 input18
*1434 input19
*1435 input20
*1436 input21
*1437 input22
*1438 input23
*1439 input24
*1440 input25
*1441 input26
*1442 input27
*1443 input28
*1444 input29
*1445 input30
*1446 input31
*1447 input32
*1448 input33
*1449 input34
*1450 input35
*1451 input36
*1452 output37
*1453 output38
*1454 output39
*1455 output40
*1456 output41
*1457 output42
*1458 output43
*1459 output44
*1460 output45
*1461 output46
*1462 output47
*1463 output48
*1464 output49
*1465 output50
*1466 output51
*1467 output52
*1468 output53
*1469 place62
*1470 place55
*1471 place56
*1472 place57
*1473 place58
*1474 place59
*1475 place60
*1476 place61
*1477 place63
*1478 FILLER_0_0
*1479 FILLER_0_8
*1480 FILLER_0_16
*1481 FILLER_0_24
*1482 FILLER_0_28
*1483 FILLER_0_31
*1484 FILLER_0_39
*1485 FILLER_0_47
*1486 FILLER_0_55
*1487 FILLER_0_59
*1488 FILLER_0_61
*1489 FILLER_0_69
*1490 FILLER_0_77
*1491 FILLER_0_85
*1492 FILLER_0_89
*1493 FILLER_0_99
*1494 FILLER_0_101
*1495 FILLER_0_118
*1496 FILLER_0_121
*1497 FILLER_0_129
*1498 FILLER_0_137
*1499 FILLER_0_146
*1500 FILLER_0_151
*1501 FILLER_0_159
*1502 FILLER_0_167
*1503 FILLER_0_175
*1504 FILLER_0_179
*1505 FILLER_0_181
*1506 FILLER_0_189
*1507 FILLER_0_197
*1508 FILLER_0_205
*1509 FILLER_0_209
*1510 FILLER_0_211
*1511 FILLER_0_219
*1512 FILLER_0_227
*1513 FILLER_0_235
*1514 FILLER_0_239
*1515 FILLER_0_241
*1516 FILLER_0_245
*1517 FILLER_1_0
*1518 FILLER_1_8
*1519 FILLER_1_16
*1520 FILLER_1_24
*1521 FILLER_1_32
*1522 FILLER_1_40
*1523 FILLER_1_48
*1524 FILLER_1_56
*1525 FILLER_1_61
*1526 FILLER_1_69
*1527 FILLER_1_77
*1528 FILLER_1_95
*1529 FILLER_1_106
*1530 FILLER_1_110
*1531 FILLER_1_121
*1532 FILLER_1_129
*1533 FILLER_1_133
*1534 FILLER_1_135
*1535 FILLER_1_144
*1536 FILLER_1_158
*1537 FILLER_1_166
*1538 FILLER_1_174
*1539 FILLER_1_178
*1540 FILLER_1_181
*1541 FILLER_1_189
*1542 FILLER_1_197
*1543 FILLER_1_205
*1544 FILLER_1_213
*1545 FILLER_1_221
*1546 FILLER_1_229
*1547 FILLER_1_237
*1548 FILLER_1_239
*1549 FILLER_1_241
*1550 FILLER_1_245
*1551 FILLER_2_0
*1552 FILLER_2_8
*1553 FILLER_2_16
*1554 FILLER_2_24
*1555 FILLER_2_28
*1556 FILLER_2_31
*1557 FILLER_2_39
*1558 FILLER_2_41
*1559 FILLER_2_50
*1560 FILLER_2_54
*1561 FILLER_2_64
*1562 FILLER_2_72
*1563 FILLER_2_80
*1564 FILLER_2_88
*1565 FILLER_2_91
*1566 FILLER_2_93
*1567 FILLER_2_102
*1568 FILLER_2_110
*1569 FILLER_2_114
*1570 FILLER_2_123
*1571 FILLER_2_131
*1572 FILLER_2_135
*1573 FILLER_2_157
*1574 FILLER_2_165
*1575 FILLER_2_173
*1576 FILLER_2_181
*1577 FILLER_2_189
*1578 FILLER_2_197
*1579 FILLER_2_205
*1580 FILLER_2_209
*1581 FILLER_2_211
*1582 FILLER_2_219
*1583 FILLER_2_227
*1584 FILLER_2_235
*1585 FILLER_2_243
*1586 FILLER_2_245
*1587 FILLER_3_0
*1588 FILLER_3_8
*1589 FILLER_3_16
*1590 FILLER_3_24
*1591 FILLER_3_32
*1592 FILLER_3_40
*1593 FILLER_3_48
*1594 FILLER_3_56
*1595 FILLER_3_61
*1596 FILLER_3_69
*1597 FILLER_3_77
*1598 FILLER_3_85
*1599 FILLER_3_93
*1600 FILLER_3_114
*1601 FILLER_3_118
*1602 FILLER_3_121
*1603 FILLER_3_129
*1604 FILLER_3_137
*1605 FILLER_3_158
*1606 FILLER_3_168
*1607 FILLER_3_176
*1608 FILLER_3_181
*1609 FILLER_3_189
*1610 FILLER_3_197
*1611 FILLER_3_205
*1612 FILLER_3_213
*1613 FILLER_3_221
*1614 FILLER_3_229
*1615 FILLER_3_237
*1616 FILLER_3_239
*1617 FILLER_3_241
*1618 FILLER_3_245
*1619 FILLER_4_0
*1620 FILLER_4_8
*1621 FILLER_4_16
*1622 FILLER_4_24
*1623 FILLER_4_28
*1624 FILLER_4_31
*1625 FILLER_4_39
*1626 FILLER_4_47
*1627 FILLER_4_55
*1628 FILLER_4_63
*1629 FILLER_4_71
*1630 FILLER_4_79
*1631 FILLER_4_87
*1632 FILLER_4_89
*1633 FILLER_4_91
*1634 FILLER_4_95
*1635 FILLER_4_106
*1636 FILLER_4_108
*1637 FILLER_4_129
*1638 FILLER_4_154
*1639 FILLER_4_164
*1640 FILLER_4_171
*1641 FILLER_4_182
*1642 FILLER_4_190
*1643 FILLER_4_198
*1644 FILLER_4_206
*1645 FILLER_4_211
*1646 FILLER_4_219
*1647 FILLER_4_227
*1648 FILLER_4_235
*1649 FILLER_4_243
*1650 FILLER_4_245
*1651 FILLER_5_0
*1652 FILLER_5_8
*1653 FILLER_5_16
*1654 FILLER_5_24
*1655 FILLER_5_32
*1656 FILLER_5_40
*1657 FILLER_5_44
*1658 FILLER_5_46
*1659 FILLER_5_50
*1660 FILLER_5_58
*1661 FILLER_5_61
*1662 FILLER_5_68
*1663 FILLER_5_76
*1664 FILLER_5_84
*1665 FILLER_5_102
*1666 FILLER_5_104
*1667 FILLER_5_111
*1668 FILLER_5_121
*1669 FILLER_5_146
*1670 FILLER_5_154
*1671 FILLER_5_181
*1672 FILLER_5_189
*1673 FILLER_5_197
*1674 FILLER_5_205
*1675 FILLER_5_213
*1676 FILLER_5_221
*1677 FILLER_5_229
*1678 FILLER_5_237
*1679 FILLER_5_239
*1680 FILLER_5_241
*1681 FILLER_5_245
*1682 FILLER_6_0
*1683 FILLER_6_8
*1684 FILLER_6_16
*1685 FILLER_6_24
*1686 FILLER_6_28
*1687 FILLER_6_31
*1688 FILLER_6_39
*1689 FILLER_6_47
*1690 FILLER_6_55
*1691 FILLER_6_63
*1692 FILLER_6_71
*1693 FILLER_6_91
*1694 FILLER_6_99
*1695 FILLER_6_105
*1696 FILLER_6_113
*1697 FILLER_6_115
*1698 FILLER_6_122
*1699 FILLER_6_124
*1700 FILLER_6_142
*1701 FILLER_6_147
*1702 FILLER_6_149
*1703 FILLER_6_151
*1704 FILLER_6_159
*1705 FILLER_6_170
*1706 FILLER_6_179
*1707 FILLER_6_187
*1708 FILLER_6_204
*1709 FILLER_6_208
*1710 FILLER_6_211
*1711 FILLER_6_213
*1712 FILLER_6_218
*1713 FILLER_6_226
*1714 FILLER_6_234
*1715 FILLER_6_242
*1716 FILLER_7_0
*1717 FILLER_7_8
*1718 FILLER_7_16
*1719 FILLER_7_80
*1720 FILLER_7_102
*1721 FILLER_7_107
*1722 FILLER_7_109
*1723 FILLER_7_113
*1724 FILLER_7_117
*1725 FILLER_7_119
*1726 FILLER_7_121
*1727 FILLER_7_135
*1728 FILLER_7_147
*1729 FILLER_7_151
*1730 FILLER_7_161
*1731 FILLER_7_165
*1732 FILLER_7_176
*1733 FILLER_7_181
*1734 FILLER_7_193
*1735 FILLER_7_220
*1736 FILLER_7_227
*1737 FILLER_7_235
*1738 FILLER_7_239
*1739 FILLER_7_241
*1740 FILLER_7_245
*1741 FILLER_8_0
*1742 FILLER_8_8
*1743 FILLER_8_16
*1744 FILLER_8_24
*1745 FILLER_8_28
*1746 FILLER_8_31
*1747 FILLER_8_33
*1748 FILLER_8_77
*1749 FILLER_8_85
*1750 FILLER_8_89
*1751 FILLER_8_91
*1752 FILLER_8_95
*1753 FILLER_8_103
*1754 FILLER_8_117
*1755 FILLER_8_122
*1756 FILLER_8_129
*1757 FILLER_8_144
*1758 FILLER_8_148
*1759 FILLER_8_151
*1760 FILLER_8_160
*1761 FILLER_8_181
*1762 FILLER_8_194
*1763 FILLER_8_216
*1764 FILLER_8_224
*1765 FILLER_8_232
*1766 FILLER_8_240
*1767 FILLER_8_244
*1768 FILLER_9_0
*1769 FILLER_9_8
*1770 FILLER_9_16
*1771 FILLER_9_24
*1772 FILLER_9_32
*1773 FILLER_9_40
*1774 FILLER_9_48
*1775 FILLER_9_59
*1776 FILLER_9_61
*1777 FILLER_9_69
*1778 FILLER_9_73
*1779 FILLER_9_75
*1780 FILLER_9_79
*1781 FILLER_9_87
*1782 FILLER_9_95
*1783 FILLER_9_118
*1784 FILLER_9_127
*1785 FILLER_9_135
*1786 FILLER_9_139
*1787 FILLER_9_181
*1788 FILLER_9_185
*1789 FILLER_9_197
*1790 FILLER_9_202
*1791 FILLER_9_213
*1792 FILLER_9_220
*1793 FILLER_9_222
*1794 FILLER_9_228
*1795 FILLER_9_236
*1796 FILLER_9_241
*1797 FILLER_9_245
*1798 FILLER_10_0
*1799 FILLER_10_8
*1800 FILLER_10_16
*1801 FILLER_10_24
*1802 FILLER_10_28
*1803 FILLER_10_31
*1804 FILLER_10_62
*1805 FILLER_10_70
*1806 FILLER_10_77
*1807 FILLER_10_84
*1808 FILLER_10_88
*1809 FILLER_10_99
*1810 FILLER_10_107
*1811 FILLER_10_111
*1812 FILLER_10_113
*1813 FILLER_10_117
*1814 FILLER_10_128
*1815 FILLER_10_136
*1816 FILLER_10_140
*1817 FILLER_10_142
*1818 FILLER_10_151
*1819 FILLER_10_160
*1820 FILLER_10_165
*1821 FILLER_10_167
*1822 FILLER_10_185
*1823 FILLER_10_197
*1824 FILLER_10_201
*1825 FILLER_10_203
*1826 FILLER_10_211
*1827 FILLER_10_221
*1828 FILLER_10_228
*1829 FILLER_10_236
*1830 FILLER_10_244
*1831 FILLER_11_0
*1832 FILLER_11_8
*1833 FILLER_11_16
*1834 FILLER_11_24
*1835 FILLER_11_32
*1836 FILLER_11_40
*1837 FILLER_11_48
*1838 FILLER_11_56
*1839 FILLER_11_61
*1840 FILLER_11_69
*1841 FILLER_11_74
*1842 FILLER_11_84
*1843 FILLER_11_86
*1844 FILLER_11_90
*1845 FILLER_11_98
*1846 FILLER_11_106
*1847 FILLER_11_110
*1848 FILLER_11_121
*1849 FILLER_11_129
*1850 FILLER_11_137
*1851 FILLER_11_141
*1852 FILLER_11_147
*1853 FILLER_11_149
*1854 FILLER_11_156
*1855 FILLER_11_181
*1856 FILLER_11_185
*1857 FILLER_11_192
*1858 FILLER_11_200
*1859 FILLER_11_224
*1860 FILLER_11_232
*1861 FILLER_11_241
*1862 FILLER_11_245
*1863 FILLER_12_0
*1864 FILLER_12_8
*1865 FILLER_12_16
*1866 FILLER_12_24
*1867 FILLER_12_28
*1868 FILLER_12_31
*1869 FILLER_12_39
*1870 FILLER_12_61
*1871 FILLER_12_69
*1872 FILLER_12_77
*1873 FILLER_12_81
*1874 FILLER_12_83
*1875 FILLER_12_91
*1876 FILLER_12_93
*1877 FILLER_12_100
*1878 FILLER_12_108
*1879 FILLER_12_127
*1880 FILLER_12_135
*1881 FILLER_12_143
*1882 FILLER_12_147
*1883 FILLER_12_149
*1884 FILLER_12_151
*1885 FILLER_12_159
*1886 FILLER_12_167
*1887 FILLER_12_175
*1888 FILLER_12_186
*1889 FILLER_12_195
*1890 FILLER_12_206
*1891 FILLER_12_211
*1892 FILLER_12_218
*1893 FILLER_12_230
*1894 FILLER_12_238
*1895 FILLER_13_0
*1896 FILLER_13_8
*1897 FILLER_13_16
*1898 FILLER_13_20
*1899 FILLER_13_22
*1900 FILLER_13_41
*1901 FILLER_13_61
*1902 FILLER_13_89
*1903 FILLER_13_97
*1904 FILLER_13_99
*1905 FILLER_13_109
*1906 FILLER_13_117
*1907 FILLER_13_119
*1908 FILLER_13_121
*1909 FILLER_13_146
*1910 FILLER_13_150
*1911 FILLER_13_158
*1912 FILLER_13_171
*1913 FILLER_13_173
*1914 FILLER_13_177
*1915 FILLER_13_179
*1916 FILLER_13_184
*1917 FILLER_13_190
*1918 FILLER_13_194
*1919 FILLER_13_196
*1920 FILLER_13_204
*1921 FILLER_13_212
*1922 FILLER_13_216
*1923 FILLER_13_224
*1924 FILLER_13_232
*1925 FILLER_13_241
*1926 FILLER_13_245
*1927 FILLER_14_0
*1928 FILLER_14_8
*1929 FILLER_14_16
*1930 FILLER_14_24
*1931 FILLER_14_28
*1932 FILLER_14_31
*1933 FILLER_14_39
*1934 FILLER_14_43
*1935 FILLER_14_51
*1936 FILLER_14_56
*1937 FILLER_14_60
*1938 FILLER_14_79
*1939 FILLER_14_89
*1940 FILLER_14_91
*1941 FILLER_14_95
*1942 FILLER_14_104
*1943 FILLER_14_142
*1944 FILLER_14_151
*1945 FILLER_14_159