* CDL Netlist generated by OpenROAD

*.BUSDELIMITER [

.SUBCKT ALU ALU_control[0] ALU_control[1] ALU_control[2] ALU_control[3]
+ ALU_result[0] ALU_result[10] ALU_result[11] ALU_result[12]
+ ALU_result[13] ALU_result[14] ALU_result[15] ALU_result[1]
+ ALU_result[2] ALU_result[3] ALU_result[4] ALU_result[5] ALU_result[6]
+ ALU_result[7] ALU_result[8] ALU_result[9] SrcA[0] SrcA[10]
+ SrcA[11] SrcA[12] SrcA[13] SrcA[14] SrcA[15] SrcA[1] SrcA[2]
+ SrcA[3] SrcA[4] SrcA[5] SrcA[6] SrcA[7] SrcA[8] SrcA[9] SrcB[0]
+ SrcB[10] SrcB[11] SrcB[12] SrcB[13] SrcB[14] SrcB[15] SrcB[1]
+ SrcB[2] SrcB[3] SrcB[4] SrcB[5] SrcB[6] SrcB[7] SrcB[8] SrcB[9]
+ zero VSS VDD
XTAP_TAPCELL_ROW_12_54 VSS VDD sky130_fd_sc_hd__tapvpwrvgnd_1
X_0636_ net59 VSS VSS VDD VDD _0132_ sky130_fd_sc_hd__inv_1
XTAP_TAPCELL_ROW_12_53 VSS VDD sky130_fd_sc_hd__tapvpwrvgnd_1
XTAP_TAPCELL_ROW_12_52 VSS VDD sky130_fd_sc_hd__tapvpwrvgnd_1
XTAP_TAPCELL_ROW_11_51 VSS VDD sky130_fd_sc_hd__tapvpwrvgnd_1
XTAP_TAPCELL_ROW_11_50 VSS VDD sky130_fd_sc_hd__tapvpwrvgnd_1
X_0641_ net61 VSS VSS VDD VDD _0012_ sky130_fd_sc_hd__inv_1
XTAP_TAPCELL_ROW_11_49 VSS VDD sky130_fd_sc_hd__tapvpwrvgnd_1
XTAP_TAPCELL_ROW_11_48 VSS VDD sky130_fd_sc_hd__tapvpwrvgnd_1
XTAP_TAPCELL_ROW_10_47 VSS VDD sky130_fd_sc_hd__tapvpwrvgnd_1
XTAP_TAPCELL_ROW_10_46 VSS VDD sky130_fd_sc_hd__tapvpwrvgnd_1
XTAP_TAPCELL_ROW_10_45 VSS VDD sky130_fd_sc_hd__tapvpwrvgnd_1
XTAP_TAPCELL_ROW_10_44 VSS VDD sky130_fd_sc_hd__tapvpwrvgnd_1
XTAP_TAPCELL_ROW_9_43 VSS VDD sky130_fd_sc_hd__tapvpwrvgnd_1
XTAP_TAPCELL_ROW_9_42 VSS VDD sky130_fd_sc_hd__tapvpwrvgnd_1
XTAP_TAPCELL_ROW_9_41 VSS VDD sky130_fd_sc_hd__tapvpwrvgnd_1
XTAP_TAPCELL_ROW_9_40 VSS VDD sky130_fd_sc_hd__tapvpwrvgnd_1
XTAP_TAPCELL_ROW_8_39 VSS VDD sky130_fd_sc_hd__tapvpwrvgnd_1
XTAP_TAPCELL_ROW_8_38 VSS VDD sky130_fd_sc_hd__tapvpwrvgnd_1
X_0654_ net2 net3 net4 VSS VSS VDD VDD _0148_ sky130_fd_sc_hd__nor3_2
XTAP_TAPCELL_ROW_8_37 VSS VDD sky130_fd_sc_hd__tapvpwrvgnd_1
X_0656_ net63 _0148_ VSS VSS VDD VDD _0150_ sky130_fd_sc_hd__nand2_1
X_0657_ net61 _0017_ _0150_ VSS VSS VDD VDD _0001_ sky130_fd_sc_hd__mux2i_1
XTAP_TAPCELL_ROW_8_36 VSS VDD sky130_fd_sc_hd__tapvpwrvgnd_1
X_0659_ net60 VSS VSS VDD VDD _0152_ sky130_fd_sc_hd__inv_1
XTAP_TAPCELL_ROW_7_35 VSS VDD sky130_fd_sc_hd__tapvpwrvgnd_1
XTAP_TAPCELL_ROW_7_34 VSS VDD sky130_fd_sc_hd__tapvpwrvgnd_1
XTAP_TAPCELL_ROW_7_33 VSS VDD sky130_fd_sc_hd__tapvpwrvgnd_1
XTAP_TAPCELL_ROW_7_32 VSS VDD sky130_fd_sc_hd__tapvpwrvgnd_1
X_0664_ net63 _0148_ VSS VSS VDD VDD _0156_ sky130_fd_sc_hd__and2_1
XTAP_TAPCELL_ROW_6_31 VSS VDD sky130_fd_sc_hd__tapvpwrvgnd_1
X_0666_ _0016_ _0156_ VSS VSS VDD VDD _0158_ sky130_fd_sc_hd__nor2_1
X_0667_ net60 _0158_ VSS VSS VDD VDD _0027_ sky130_fd_sc_hd__xnor2_1
XTAP_TAPCELL_ROW_6_30 VSS VDD sky130_fd_sc_hd__tapvpwrvgnd_1
X_0669_ net14 VSS VSS VDD VDD _0030_ sky130_fd_sc_hd__inv_1
XTAP_TAPCELL_ROW_6_29 VSS VDD sky130_fd_sc_hd__tapvpwrvgnd_1
X_0671_ net62 VSS VSS VDD VDD _0005_ sky130_fd_sc_hd__inv_2
XTAP_TAPCELL_ROW_6_28 VSS VDD sky130_fd_sc_hd__tapvpwrvgnd_1
XTAP_TAPCELL_ROW_5_27 VSS VDD sky130_fd_sc_hd__tapvpwrvgnd_1
XTAP_TAPCELL_ROW_5_26 VSS VDD sky130_fd_sc_hd__tapvpwrvgnd_1
X_0675_ net62 net61 net60 VSS VSS VDD VDD _0164_ sky130_fd_sc_hd__nor3_1
X_0676_ _0156_ _0164_ VSS VSS VDD VDD _0165_ sky130_fd_sc_hd__nor2_1
X_0677_ net59 _0165_ VSS VSS VDD VDD _0035_ sky130_fd_sc_hd__xnor2_1
X_0678_ _0008_ VSS VSS VDD VDD _0000_ sky130_fd_sc_hd__inv_1
XTAP_TAPCELL_ROW_5_25 VSS VDD sky130_fd_sc_hd__tapvpwrvgnd_1
X_0680_ net15 VSS VSS VDD VDD _0038_ sky130_fd_sc_hd__inv_1
X_0681_ net31 VSS VSS VDD VDD _0039_ sky130_fd_sc_hd__inv_1
X_0682_ net60 net59 VSS VSS VDD VDD _0167_ sky130_fd_sc_hd__nor2_1
X_0683_ _0016_ _0167_ _0156_ VSS VSS VDD VDD _0168_ sky130_fd_sc_hd__a21oi_1
X_0684_ net31 _0168_ VSS VSS VDD VDD _0043_ sky130_fd_sc_hd__xnor2_1
XTAP_TAPCELL_ROW_5_24 VSS VDD sky130_fd_sc_hd__tapvpwrvgnd_1
X_0686_ net16 VSS VSS VDD VDD _0046_ sky130_fd_sc_hd__inv_1
X_0687_ net32 VSS VSS VDD VDD _0047_ sky130_fd_sc_hd__inv_1
XTAP_TAPCELL_ROW_4_23 VSS VDD sky130_fd_sc_hd__tapvpwrvgnd_1
XTAP_TAPCELL_ROW_4_22 VSS VDD sky130_fd_sc_hd__tapvpwrvgnd_1
XTAP_TAPCELL_ROW_4_21 VSS VDD sky130_fd_sc_hd__tapvpwrvgnd_1
X_0691_ net62 net61 VSS VSS VDD VDD _0173_ sky130_fd_sc_hd__nor2_1
XTAP_TAPCELL_ROW_4_20 VSS VDD sky130_fd_sc_hd__tapvpwrvgnd_1
X_0693_ net60 net59 VSS VSS VDD VDD _0175_ sky130_fd_sc_hd__or2_2
X_0694_ net31 _0175_ VSS VSS VDD VDD _0176_ sky130_fd_sc_hd__nor2_1
X_0695_ _0173_ _0176_ _0156_ VSS VSS VDD VDD _0177_ sky130_fd_sc_hd__a21oi_1
X_0696_ net32 _0177_ VSS VSS VDD VDD _0051_ sky130_fd_sc_hd__xnor2_1
X_0697_ net17 VSS VSS VDD VDD _0054_ sky130_fd_sc_hd__inv_1
X_0698_ net33 VSS VSS VDD VDD _0055_ sky130_fd_sc_hd__inv_1
X_0699_ _0016_ _0047_ _0176_ VSS VSS VDD VDD _0178_ sky130_fd_sc_hd__nand3_1
X_0700_ _0150_ _0178_ VSS VSS VDD VDD _0179_ sky130_fd_sc_hd__nand2_1
X_0701_ _0055_ _0179_ VSS VSS VDD VDD _0059_ sky130_fd_sc_hd__xnor2_1
XTAP_TAPCELL_ROW_3_19 VSS VDD sky130_fd_sc_hd__tapvpwrvgnd_1
X_0703_ net18 VSS VSS VDD VDD _0062_ sky130_fd_sc_hd__inv_1
X_0704_ net34 VSS VSS VDD VDD _0063_ sky130_fd_sc_hd__inv_1
X_0705_ net62 net61 VSS VSS VDD VDD _0181_ sky130_fd_sc_hd__or2_2
X_0706_ net60 net59 net31 net32 VSS VSS VDD VDD _0182_ sky130_fd_sc_hd__or4_1
X_0707_ net33 _0181_ _0182_ VSS VSS VDD VDD _0183_ sky130_fd_sc_hd__nor3_1
X_0708_ _0156_ _0183_ VSS VSS VDD VDD _0184_ sky130_fd_sc_hd__nor2_1
X_0709_ net34 _0184_ VSS VSS VDD VDD _0067_ sky130_fd_sc_hd__xnor2_1
XTAP_TAPCELL_ROW_3_18 VSS VDD sky130_fd_sc_hd__tapvpwrvgnd_1
X_0711_ net19 VSS VSS VDD VDD _0070_ sky130_fd_sc_hd__inv_1
X_0712_ net35 VSS VSS VDD VDD _0071_ sky130_fd_sc_hd__inv_1
X_0713_ net33 _0178_ VSS VSS VDD VDD _0186_ sky130_fd_sc_hd__nor2_1
X_0714_ _0063_ _0186_ _0156_ VSS VSS VDD VDD _0187_ sky130_fd_sc_hd__a21oi_1
X_0715_ net35 _0187_ VSS VSS VDD VDD _0080_ sky130_fd_sc_hd__xnor2_1
XTAP_TAPCELL_ROW_3_17 VSS VDD sky130_fd_sc_hd__tapvpwrvgnd_1
X_0717_ net20 VSS VSS VDD VDD _0075_ sky130_fd_sc_hd__inv_1
X_0718_ net36 VSS VSS VDD VDD _0076_ sky130_fd_sc_hd__inv_1
X_0719_ net34 net35 VSS VSS VDD VDD _0189_ sky130_fd_sc_hd__nor2_1
X_0720_ _0183_ _0189_ _0156_ VSS VSS VDD VDD _0190_ sky130_fd_sc_hd__a21oi_1
X_0721_ net36 _0190_ VSS VSS VDD VDD _0088_ sky130_fd_sc_hd__xnor2_1
XTAP_TAPCELL_ROW_3_16 VSS VDD sky130_fd_sc_hd__tapvpwrvgnd_1
X_0723_ net6 VSS VSS VDD VDD _0083_ sky130_fd_sc_hd__inv_1
X_0724_ net22 VSS VSS VDD VDD _0084_ sky130_fd_sc_hd__inv_1
X_0725_ _0076_ _0186_ _0189_ _0156_ VSS VSS VDD VDD _0192_
+ sky130_fd_sc_hd__a31oi_1
X_0726_ net22 _0192_ VSS VSS VDD VDD _0096_ sky130_fd_sc_hd__xnor2_1
XTAP_TAPCELL_ROW_2_15 VSS VDD sky130_fd_sc_hd__tapvpwrvgnd_1
X_0728_ net7 VSS VSS VDD VDD _0091_ sky130_fd_sc_hd__inv_1
X_0729_ net23 VSS VSS VDD VDD _0092_ sky130_fd_sc_hd__inv_1
X_0730_ net34 net35 net36 net22 VSS VSS VDD VDD _0194_ sky130_fd_sc_hd__nor4_1
X_0731_ _0183_ _0194_ _0156_ VSS VSS VDD VDD _0195_ sky130_fd_sc_hd__a21oi_1
X_0732_ net23 _0195_ VSS VSS VDD VDD _0104_ sky130_fd_sc_hd__xnor2_1
XTAP_TAPCELL_ROW_2_14 VSS VDD sky130_fd_sc_hd__tapvpwrvgnd_1
X_0734_ net8 VSS VSS VDD VDD _0099_ sky130_fd_sc_hd__inv_1
X_0735_ net24 VSS VSS VDD VDD _0100_ sky130_fd_sc_hd__inv_1
X_0736_ _0092_ _0186_ _0194_ _0156_ VSS VSS VDD VDD _0197_
+ sky130_fd_sc_hd__a31oi_1
X_0737_ net24 _0197_ VSS VSS VDD VDD _0115_ sky130_fd_sc_hd__xnor2_1
XTAP_TAPCELL_ROW_2_13 VSS VDD sky130_fd_sc_hd__tapvpwrvgnd_1
X_0739_ net9 VSS VSS VDD VDD _0107_ sky130_fd_sc_hd__inv_1
X_0740_ net25 VSS VSS VDD VDD _0108_ sky130_fd_sc_hd__inv_1
X_0741_ _0092_ _0100_ _0194_ VSS VSS VDD VDD _0199_ sky130_fd_sc_hd__and3_1
X_0742_ _0183_ _0199_ _0156_ VSS VSS VDD VDD _0200_ sky130_fd_sc_hd__a21oi_1
X_0743_ net25 _0200_ VSS VSS VDD VDD _0112_ sky130_fd_sc_hd__xnor2_1
X_0744_ net26 VSS VSS VDD VDD _0119_ sky130_fd_sc_hd__inv_1
X_0745_ _0108_ _0186_ _0199_ _0156_ VSS VSS VDD VDD _0201_
+ sky130_fd_sc_hd__a31oi_1
X_0746_ net26 _0201_ VSS VSS VDD VDD _0123_ sky130_fd_sc_hd__xnor2_1
X_0747_ net27 VSS VSS VDD VDD _0127_ sky130_fd_sc_hd__inv_1
X_0748_ net4 net3 net2 VSS VSS VDD VDD _0202_ sky130_fd_sc_hd__and3b_1
XTAP_TAPCELL_ROW_2_12 VSS VDD sky130_fd_sc_hd__tapvpwrvgnd_1
XTAP_TAPCELL_ROW_1_11 VSS VDD sky130_fd_sc_hd__tapvpwrvgnd_1
X_0751_ net16 net17 net18 net19 net62 net61 VSS VSS VDD VDD
+ _0205_ sky130_fd_sc_hd__mux4_2
XTAP_TAPCELL_ROW_1_10 VSS VDD sky130_fd_sc_hd__tapvpwrvgnd_1
X_0753_ net12 net5 net62 VSS VSS VDD VDD _0207_ sky130_fd_sc_hd__mux2_2
X_0754_ net2 net4 net3 net63 VSS VSS VDD VDD _0208_ sky130_fd_sc_hd__nor4bb_1
XTAP_TAPCELL_ROW_1_9 VSS VDD sky130_fd_sc_hd__tapvpwrvgnd_1
XTAP_TAPCELL_ROW_1_8 VSS VDD sky130_fd_sc_hd__tapvpwrvgnd_1
X_0757_ net12 net13 net14 net15 net62 net61 VSS VSS VDD VDD
+ _0211_ sky130_fd_sc_hd__mux4_2
X_0758_ _0012_ _0207_ net58 _0202_ _0211_ VSS VSS VDD VDD
+ _0212_ sky130_fd_sc_hd__a32oi_1
X_0759_ net60 _0212_ VSS VSS VDD VDD _0213_ sky130_fd_sc_hd__nor2_1
X_0760_ net60 _0202_ _0205_ _0213_ net59 VSS VSS VDD VDD _0214_
+ sky130_fd_sc_hd__a311oi_1
X_0761_ net4 net3 net63 net2 VSS VSS VDD VDD _0215_ sky130_fd_sc_hd__and4b_1
XTAP_TAPCELL_ROW_0_7 VSS VDD sky130_fd_sc_hd__tapvpwrvgnd_1
X_0763_ net20 net7 net61 VSS VSS VDD VDD _0217_ sky130_fd_sc_hd__mux2_2
X_0764_ net62 net60 VSS VSS VDD VDD _0218_ sky130_fd_sc_hd__nor2_1
X_0765_ net60 net62 VSS VSS VDD VDD _0219_ sky130_fd_sc_hd__nor2b_1
X_0766_ net6 net8 net61 VSS VSS VDD VDD _0220_ sky130_fd_sc_hd__mux2_2
X_0767_ _0217_ _0218_ _0219_ _0220_ VSS VSS VDD VDD _0221_
+ sky130_fd_sc_hd__a22oi_1
XTAP_TAPCELL_ROW_0_6 VSS VDD sky130_fd_sc_hd__tapvpwrvgnd_1
X_0769_ net9 net10 net62 VSS VSS VDD VDD _0223_ sky130_fd_sc_hd__mux2_2
XTAP_TAPCELL_ROW_0_5 VSS VDD sky130_fd_sc_hd__tapvpwrvgnd_1
X_0771_ net11 net61 VSS VSS VDD VDD _0225_ sky130_fd_sc_hd__nand2b_1
X_0772_ net61 _0223_ _0225_ net60 VSS VSS VDD VDD _0226_ sky130_fd_sc_hd__o211ai_1
X_0773_ _0221_ _0226_ VSS VSS VDD VDD _0227_ sky130_fd_sc_hd__nand2_1
X_0774_ net6 net10 net60 VSS VSS VDD VDD _0228_ sky130_fd_sc_hd__mux2_2
X_0775_ net60 net61 VSS VSS VDD VDD _0229_ sky130_fd_sc_hd__nor2b_1
X_0776_ _0012_ _0228_ _0229_ net8 VSS VSS VDD VDD _0230_ sky130_fd_sc_hd__a22oi_1
X_0777_ net20 net7 net9 net11 net61 net60 VSS VSS VDD VDD
+ _0231_ sky130_fd_sc_hd__mux4_2
X_0778_ net63 net4 net3 net2 VSS VSS VDD VDD _0232_ sky130_fd_sc_hd__nor4bb_1
X_0779_ net62 _0231_ _0232_ VSS VSS VDD VDD _0233_ sky130_fd_sc_hd__o21ai_0
X_0780_ net62 _0230_ _0233_ VSS VSS VDD VDD _0234_ sky130_fd_sc_hd__a21oi_1
X_0781_ _0215_ _0227_ _0132_ _0234_ VSS VSS VDD VDD _0235_
+ sky130_fd_sc_hd__a211oi_1
X_0782_ net63 net3 net4 net2 VSS VSS VDD VDD _0236_ sky130_fd_sc_hd__nor4b_1
X_0783_ net3 net4 net2 net63 VSS VSS VDD VDD _0237_ sky130_fd_sc_hd__nand4bb_1
XTAP_TAPCELL_ROW_0_4 VSS VDD sky130_fd_sc_hd__tapvpwrvgnd_1
X_0785_ _0003_ _0148_ VSS VSS VDD VDD _0239_ sky130_fd_sc_hd__nand2_1
X_0786_ _0013_ _0237_ _0239_ VSS VSS VDD VDD _0240_ sky130_fd_sc_hd__o21ai_0
X_0787_ net2 net63 net3 net4 VSS VSS VDD VDD _0241_ sky130_fd_sc_hd__or4b_2
XTAP_TAPCELL_ROW_0_3 VSS VDD sky130_fd_sc_hd__tapvpwrvgnd_1
X_0789_ net2 net63 net4 net3 VSS VSS VDD VDD _0243_ sky130_fd_sc_hd__nor4b_1
X_0790_ _0015_ _0243_ VSS VSS VDD VDD _0244_ sky130_fd_sc_hd__nand2_1
X_0791_ net12 _0241_ _0244_ VSS VSS VDD VDD _0245_ sky130_fd_sc_hd__o21ai_0
X_0792_ _0014_ _0236_ _0240_ _0245_ VSS VSS VDD VDD _0246_
+ sky130_fd_sc_hd__a211oi_1
X_0793_ _0214_ _0235_ _0246_ VSS VSS VDD VDD net44 sky130_fd_sc_hd__o21ai_0
X_0794_ net19 net6 net8 net10 net61 net60 VSS VSS VDD VDD
+ _0247_ sky130_fd_sc_hd__mux4_2
X_0795_ _0231_ _0247_ _0005_ VSS VSS VDD VDD _0248_ sky130_fd_sc_hd__mux2_4
X_0796_ net4 net3 VSS VSS VDD VDD _0249_ sky130_fd_sc_hd__nor2b_1
X_0797_ net2 _0249_ VSS VSS VDD VDD _0250_ sky130_fd_sc_hd__nand2_1
X_0798_ net5 net12 net13 net14 net62 net61 VSS VSS VDD VDD
+ _0251_ sky130_fd_sc_hd__mux4_2
X_0799_ net60 _0251_ VSS VSS VDD VDD _0252_ sky130_fd_sc_hd__nor2_1
X_0800_ net15 net16 net17 net18 net62 net61 VSS VSS VDD VDD
+ _0253_ sky130_fd_sc_hd__mux4_2
X_0801_ _0152_ _0253_ VSS VSS VDD VDD _0254_ sky130_fd_sc_hd__nor2_1
X_0802_ net59 _0250_ _0252_ _0254_ VSS VSS VDD VDD _0255_
+ sky130_fd_sc_hd__nor4_1
X_0803_ net61 net60 net59 VSS VSS VDD VDD _0256_ sky130_fd_sc_hd__nor3_1
X_0804_ _0009_ net58 _0256_ VSS VSS VDD VDD _0257_ sky130_fd_sc_hd__nand3_1
X_0805_ net2 net63 net3 net4 VSS VSS VDD VDD _0258_ sky130_fd_sc_hd__nor4b_1
X_0806_ net5 _0258_ _0243_ _0010_ VSS VSS VDD VDD _0259_ sky130_fd_sc_hd__a22oi_1
X_0807_ _0006_ net63 net2 VSS VSS VDD VDD _0260_ sky130_fd_sc_hd__and3b_1
X_0808_ net2 net63 _0007_ VSS VSS VDD VDD _0261_ sky130_fd_sc_hd__a21boi_0
X_0809_ net3 net4 VSS VSS VDD VDD _0262_ sky130_fd_sc_hd__nor2_1
X_0810_ _0260_ _0261_ _0262_ VSS VSS VDD VDD _0263_ sky130_fd_sc_hd__o21ai_0
X_0811_ _0257_ _0259_ _0263_ VSS VSS VDD VDD _0264_ sky130_fd_sc_hd__nand3_1
X_0812_ net59 _0202_ _0248_ _0255_ _0264_ VSS VSS VDD VDD
+ net37 sky130_fd_sc_hd__a311o_1
X_0813_ net14 net13 net12 net5 net62 net61 VSS VSS VDD VDD
+ _0265_ sky130_fd_sc_hd__mux4_2
X_0814_ net14 net15 net16 net17 net62 net61 VSS VSS VDD VDD
+ _0266_ sky130_fd_sc_hd__mux4_2
X_0815_ net58 _0265_ _0266_ _0202_ VSS VSS VDD VDD _0267_
+ sky130_fd_sc_hd__a22oi_1
X_0816_ _0175_ _0267_ VSS VSS VDD VDD _0268_ sky130_fd_sc_hd__nor2_1
X_0817_ _0008_ _0019_ VSS VSS VDD VDD _0269_ sky130_fd_sc_hd__nor2b_1
X_0818_ _0018_ _0269_ _0029_ VSS VSS VDD VDD _0270_ sky130_fd_sc_hd__o21ai_0
X_0819_ _0037_ _0028_ VSS VSS VDD VDD _0271_ sky130_fd_sc_hd__nor2_1
X_0820_ _0029_ _0028_ _0037_ VSS VSS VDD VDD _0272_ sky130_fd_sc_hd__o21a_1
X_0821_ _0018_ _0028_ _0269_ _0272_ VSS VSS VDD VDD _0273_
+ sky130_fd_sc_hd__o31a_1
X_0822_ net2 net3 net4 VSS VSS VDD VDD _0274_ sky130_fd_sc_hd__or3_1
XTAP_TAPCELL_ROW_0_2 VSS VDD sky130_fd_sc_hd__tapvpwrvgnd_1
X_0824_ _0270_ _0271_ _0273_ _0274_ VSS VSS VDD VDD _0276_
+ sky130_fd_sc_hd__a211oi_1
X_0825_ net18 net19 net20 net6 net62 net61 VSS VSS VDD VDD
+ _0277_ sky130_fd_sc_hd__mux4_2
X_0826_ net59 net60 VSS VSS VDD VDD _0278_ sky130_fd_sc_hd__nor2b_1
X_0827_ _0202_ _0277_ _0278_ VSS VSS VDD VDD _0279_ sky130_fd_sc_hd__nand3_1
X_0828_ net14 _0020_ VSS VSS VDD VDD _0280_ sky130_fd_sc_hd__xor2_1
X_0829_ _0258_ _0280_ VSS VSS VDD VDD _0281_ sky130_fd_sc_hd__nand2_1
X_0830_ _0034_ _0243_ _0236_ _0033_ VSS VSS VDD VDD _0282_
+ sky130_fd_sc_hd__a22oi_1
X_0831_ _0032_ _0237_ _0279_ _0281_ _0282_ VSS VSS VDD VDD
+ _0283_ sky130_fd_sc_hd__o2111ai_1
X_0832_ net7 net8 net9 net10 net62 net61 VSS VSS VDD VDD _0284_
+ sky130_fd_sc_hd__mux4_2
X_0833_ _0152_ _0284_ VSS VSS VDD VDD _0285_ sky130_fd_sc_hd__and2_1
X_0834_ net4 net3 net63 net2 VSS VSS VDD VDD _0286_ sky130_fd_sc_hd__nand4b_1
XTAP_TAPCELL_ROW_0_1 VSS VDD sky130_fd_sc_hd__tapvpwrvgnd_1
X_0836_ net60 net11 VSS VSS VDD VDD _0288_ sky130_fd_sc_hd__nand2_1
X_0837_ _0181_ _0286_ _0288_ VSS VSS VDD VDD _0289_ sky130_fd_sc_hd__a21oi_1
X_0838_ _0285_ _0289_ net59 _0202_ VSS VSS VDD VDD _0290_
+ sky130_fd_sc_hd__o211ai_1
X_0839_ _0268_ _0276_ _0283_ _0290_ VSS VSS VDD VDD _0291_
+ sky130_fd_sc_hd__nor4b_1
X_0840_ _0291_ VSS VSS VDD VDD net46 sky130_fd_sc_hd__inv_1
X_0841_ net3 _0024_ VSS VSS VDD VDD _0292_ sky130_fd_sc_hd__nor2_1
X_0842_ net2 net63 _0292_ VSS VSS VDD VDD _0293_ sky130_fd_sc_hd__nand3_1
X_0843_ net2 net63 VSS VSS VDD VDD _0294_ sky130_fd_sc_hd__nor2_1
X_0844_ net3 _0026_ _0294_ VSS VSS VDD VDD _0295_ sky130_fd_sc_hd__nand3_1
X_0845_ _0293_ _0295_ net4 VSS VSS VDD VDD _0296_ sky130_fd_sc_hd__a21oi_1
X_0846_ _0002_ _0029_ VSS VSS VDD VDD _0297_ sky130_fd_sc_hd__xnor2_1
X_0847_ _0021_ _0258_ _0236_ _0025_ VSS VSS VDD VDD _0298_
+ sky130_fd_sc_hd__a22oi_1
X_0848_ _0274_ _0297_ _0298_ VSS VSS VDD VDD _0299_ sky130_fd_sc_hd__o21ai_0
X_0849_ _0296_ _0299_ VSS VSS VDD VDD _0300_ sky130_fd_sc_hd__nor2_1
X_0850_ net60 net10 VSS VSS VDD VDD _0301_ sky130_fd_sc_hd__nand2_1
X_0851_ _0301_ _0288_ _0181_ VSS VSS VDD VDD _0302_ sky130_fd_sc_hd__mux2_2
X_0852_ net10 net11 net62 VSS VSS VDD VDD _0303_ sky130_fd_sc_hd__mux2i_1
X_0853_ net61 net60 VSS VSS VDD VDD _0304_ sky130_fd_sc_hd__nor2b_1
X_0854_ _0303_ _0304_ net59 _0232_ VSS VSS VDD VDD _0305_
+ sky130_fd_sc_hd__nand4b_1
X_0855_ _0132_ _0286_ _0302_ _0305_ VSS VSS VDD VDD _0306_
+ sky130_fd_sc_hd__o31ai_1
X_0856_ net7 net9 net61 VSS VSS VDD VDD _0307_ sky130_fd_sc_hd__mux2_2
X_0857_ _0219_ _0307_ VSS VSS VDD VDD _0308_ sky130_fd_sc_hd__nand2_1
X_0858_ _0220_ _0218_ VSS VSS VDD VDD _0309_ sky130_fd_sc_hd__nand2_1
X_0859_ net59 _0308_ _0309_ _0250_ VSS VSS VDD VDD _0310_
+ sky130_fd_sc_hd__a31oi_1
X_0860_ net13 net12 net62 VSS VSS VDD VDD _0311_ sky130_fd_sc_hd__mux2_2
X_0861_ _0009_ net61 VSS VSS VDD VDD _0312_ sky130_fd_sc_hd__or2b_1
X_0862_ net61 _0311_ _0312_ net58 VSS VSS VDD VDD _0313_ sky130_fd_sc_hd__o211ai_1
X_0863_ _0175_ _0313_ VSS VSS VDD VDD _0314_ sky130_fd_sc_hd__nor2_1
X_0864_ net13 net14 net15 net16 net62 net61 VSS VSS VDD VDD
+ _0315_ sky130_fd_sc_hd__mux4_2
X_0865_ _0315_ VSS VSS VDD VDD _0316_ sky130_fd_sc_hd__inv_1
X_0866_ net17 net18 net19 net20 net62 net61 VSS VSS VDD VDD
+ _0317_ sky130_fd_sc_hd__mux4_2
X_0867_ _0152_ net59 _0317_ VSS VSS VDD VDD _0318_ sky130_fd_sc_hd__nor3_1
X_0868_ _0167_ _0313_ _0316_ _0318_ VSS VSS VDD VDD _0319_
+ sky130_fd_sc_hd__a31oi_1
X_0869_ _0306_ _0310_ _0314_ _0319_ VSS VSS VDD VDD _0320_
+ sky130_fd_sc_hd__o31ai_1
X_0870_ _0300_ _0320_ VSS VSS VDD VDD net45 sky130_fd_sc_hd__nand2_1
X_0871_ _0045_ _0044_ _0053_ VSS VSS VDD VDD _0321_ sky130_fd_sc_hd__o21a_1
X_0872_ _0036_ _0044_ _0273_ _0321_ VSS VSS VDD VDD _0322_
+ sky130_fd_sc_hd__o31ai_1
X_0873_ _0037_ _0028_ _0036_ VSS VSS VDD VDD _0323_ sky130_fd_sc_hd__a21o_1
X_0874_ _0045_ _0323_ VSS VSS VDD VDD _0324_ sky130_fd_sc_hd__nand2_1
X_0875_ _0018_ _0269_ _0029_ _0037_ _0045_ VSS VSS VDD VDD
+ _0325_ sky130_fd_sc_hd__o2111ai_1
X_0876_ _0053_ _0044_ VSS VSS VDD VDD _0326_ sky130_fd_sc_hd__nor2_1
X_0877_ _0324_ _0325_ _0326_ _0274_ VSS VSS VDD VDD _0327_
+ sky130_fd_sc_hd__a31oi_1
X_0878_ _0322_ _0327_ VSS VSS VDD VDD _0328_ sky130_fd_sc_hd__nand2_1
X_0879_ net2 net63 _0249_ VSS VSS VDD VDD _0329_ sky130_fd_sc_hd__nand3b_1
X_0880_ net16 net15 net14 net13 net62 net61 VSS VSS VDD VDD
+ _0330_ sky130_fd_sc_hd__mux4_2
X_0881_ net60 _0330_ VSS VSS VDD VDD _0331_ sky130_fd_sc_hd__nor2_1
X_0882_ _0012_ _0207_ _0152_ VSS VSS VDD VDD _0332_ sky130_fd_sc_hd__a21oi_1
X_0883_ net16 net18 net20 net7 net61 net60 VSS VSS VDD VDD
+ _0333_ sky130_fd_sc_hd__mux4_2
X_0884_ net62 net59 VSS VSS VDD VDD _0334_ sky130_fd_sc_hd__or2_2
X_0885_ net59 net62 VSS VSS VDD VDD _0335_ sky130_fd_sc_hd__nand2b_1
X_0886_ net17 net19 net6 net8 net61 net60 VSS VSS VDD VDD
+ _0336_ sky130_fd_sc_hd__mux4_1
X_0887_ _0333_ _0334_ _0335_ _0336_ VSS VSS VDD VDD _0337_
+ sky130_fd_sc_hd__o22ai_1
X_0888_ _0329_ _0331_ _0332_ _0250_ _0337_ VSS VSS VDD VDD
+ _0338_ sky130_fd_sc_hd__o32ai_1
X_0889_ _0152_ _0232_ VSS VSS VDD VDD _0339_ sky130_fd_sc_hd__nand2_1
X_0890_ net61 net9 VSS VSS VDD VDD _0340_ sky130_fd_sc_hd__or2_2
X_0891_ net61 net62 VSS VSS VDD VDD _0341_ sky130_fd_sc_hd__nor2b_1
X_0892_ _0005_ _0225_ _0340_ _0341_ net10 VSS VSS VDD VDD
+ _0342_ sky130_fd_sc_hd__a32oi_1
XTAP_TAPCELL_ROW_0_0 VSS VDD sky130_fd_sc_hd__tapvpwrvgnd_1
X_0894_ net61 net60 VSS VSS VDD VDD _0344_ sky130_fd_sc_hd__nor2_1
X_0895_ net11 _0223_ _0344_ VSS VSS VDD VDD _0345_ sky130_fd_sc_hd__mux2i_1
X_0896_ _0339_ _0342_ _0345_ _0286_ net59 VSS VSS VDD VDD
+ _0346_ sky130_fd_sc_hd__o221ai_1
X_0897_ net14 net15 _0020_ VSS VSS VDD VDD _0347_ sky130_fd_sc_hd__nand3_1
X_0898_ _0046_ _0347_ VSS VSS VDD VDD _0348_ sky130_fd_sc_hd__xnor2_1
X_0899_ net2 net3 _0050_ VSS VSS VDD VDD _0349_ sky130_fd_sc_hd__nand3b_1
X_0900_ net3 _0049_ net2 VSS VSS VDD VDD _0350_ sky130_fd_sc_hd__nand3b_1
X_0901_ _0349_ _0350_ net63 net4 VSS VSS VDD VDD _0351_ sky130_fd_sc_hd__a211o_1
X_0902_ _0048_ _0237_ _0348_ _0241_ _0351_ VSS VSS VDD VDD
+ _0352_ sky130_fd_sc_hd__o221ai_1
X_0903_ _0338_ _0346_ _0352_ VSS VSS VDD VDD _0353_ sky130_fd_sc_hd__a21oi_1
X_0904_ _0328_ _0353_ VSS VSS VDD VDD net48 sky130_fd_sc_hd__nand2_1
X_0905_ _0040_ _0237_ VSS VSS VDD VDD _0354_ sky130_fd_sc_hd__nor2_1
X_0906_ net2 net3 VSS VSS VDD VDD _0355_ sky130_fd_sc_hd__nor2b_1
X_0907_ net3 net2 VSS VSS VDD VDD _0356_ sky130_fd_sc_hd__nor2b_1
X_0908_ _0042_ _0355_ _0356_ _0041_ VSS VSS VDD VDD _0357_
+ sky130_fd_sc_hd__a22oi_1
X_0909_ net12 net13 net14 VSS VSS VDD VDD _0358_ sky130_fd_sc_hd__nand3_1
X_0910_ _0038_ _0358_ VSS VSS VDD VDD _0359_ sky130_fd_sc_hd__xnor2_1
X_0911_ net63 net4 _0357_ _0359_ _0241_ VSS VSS VDD VDD _0360_
+ sky130_fd_sc_hd__o32ai_1
X_0912_ _0002_ _0029_ _0028_ VSS VSS VDD VDD _0361_ sky130_fd_sc_hd__a21o_1
X_0913_ _0037_ _0361_ _0036_ _0045_ VSS VSS VDD VDD _0362_
+ sky130_fd_sc_hd__a211oi_1
X_0914_ _0002_ _0029_ _0028_ _0036_ VSS VSS VDD VDD _0363_
+ sky130_fd_sc_hd__a211oi_1
X_0915_ _0037_ _0036_ _0045_ VSS VSS VDD VDD _0364_ sky130_fd_sc_hd__o21ai_0
X_0916_ _0363_ _0364_ _0148_ VSS VSS VDD VDD _0365_ sky130_fd_sc_hd__o21ai_0
X_0917_ _0362_ _0365_ VSS VSS VDD VDD _0366_ sky130_fd_sc_hd__nor2_1
X_0918_ _0354_ _0360_ _0366_ VSS VSS VDD VDD _0367_ sky130_fd_sc_hd__nor3_1
X_0919_ net14 _0009_ net60 VSS VSS VDD VDD _0368_ sky130_fd_sc_hd__mux2_2
X_0920_ _0341_ _0368_ VSS VSS VDD VDD _0369_ sky130_fd_sc_hd__nand2_1
X_0921_ net12 net62 _0229_ VSS VSS VDD VDD _0370_ sky130_fd_sc_hd__nand3_1
X_0922_ net15 net13 net61 VSS VSS VDD VDD _0371_ sky130_fd_sc_hd__mux2_2
X_0923_ _0009_ _0304_ _0371_ _0218_ VSS VSS VDD VDD _0372_
+ sky130_fd_sc_hd__a22oi_1
X_0924_ _0369_ _0370_ _0372_ _0329_ VSS VSS VDD VDD _0373_
+ sky130_fd_sc_hd__a31oi_1
X_0925_ net15 net17 net19 net6 net61 net60 VSS VSS VDD VDD
+ _0374_ sky130_fd_sc_hd__mux4_2
X_0926_ _0333_ _0374_ _0005_ VSS VSS VDD VDD _0375_ sky130_fd_sc_hd__mux2i_1
X_0927_ _0132_ _0375_ _0250_ VSS VSS VDD VDD _0376_ sky130_fd_sc_hd__a21oi_1
X_0928_ net8 net9 net10 net11 net62 net61 VSS VSS VDD VDD
+ _0377_ sky130_fd_sc_hd__mux4_2
X_0929_ _0202_ _0377_ VSS VSS VDD VDD _0378_ sky130_fd_sc_hd__nand2_1
X_0930_ _0288_ _0286_ _0378_ net60 net59 VSS VSS VDD VDD _0379_
+ sky130_fd_sc_hd__o221ai_1
X_0931_ _0373_ _0376_ _0379_ VSS VSS VDD VDD _0380_ sky130_fd_sc_hd__o21ai_0
X_0932_ _0367_ _0380_ VSS VSS VDD VDD net47 sky130_fd_sc_hd__nand2_1
X_0933_ _0053_ _0052_ VSS VSS VDD VDD _0381_ sky130_fd_sc_hd__or2_2
X_0934_ _0061_ _0381_ _0060_ VSS VSS VDD VDD _0382_ sky130_fd_sc_hd__a21oi_1
X_0935_ _0044_ _0052_ _0060_ VSS VSS VDD VDD _0383_ sky130_fd_sc_hd__nor3_1
X_0936_ _0324_ _0325_ _0383_ VSS VSS VDD VDD _0384_ sky130_fd_sc_hd__and3_1
X_0937_ _0382_ _0384_ VSS VSS VDD VDD _0385_ sky130_fd_sc_hd__nor2_1
X_0938_ _0069_ _0385_ VSS VSS VDD VDD _0386_ sky130_fd_sc_hd__xnor2_1
X_0939_ _0064_ _0237_ VSS VSS VDD VDD _0387_ sky130_fd_sc_hd__nor2_1
X_0940_ net11 VSS VSS VDD VDD _0126_ sky130_fd_sc_hd__inv_1
X_0941_ _0126_ _0132_ _0181_ _0339_ VSS VSS VDD VDD _0388_
+ sky130_fd_sc_hd__nor4_1
X_0942_ _0066_ _0355_ _0356_ _0065_ VSS VSS VDD VDD _0389_
+ sky130_fd_sc_hd__a22oi_1
X_0943_ net63 net4 _0389_ VSS VSS VDD VDD _0390_ sky130_fd_sc_hd__nor3_1
X_0944_ _0126_ _0132_ _0286_ VSS VSS VDD VDD _0391_ sky130_fd_sc_hd__nor3_1
X_0945_ _0387_ _0388_ _0390_ _0391_ VSS VSS VDD VDD _0392_
+ sky130_fd_sc_hd__nor4_1
X_0946_ net14 net15 net16 _0020_ VSS VSS VDD VDD _0393_ sky130_fd_sc_hd__and4_1
X_0947_ net17 _0393_ VSS VSS VDD VDD _0394_ sky130_fd_sc_hd__nand2_1
X_0948_ net18 _0394_ VSS VSS VDD VDD _0395_ sky130_fd_sc_hd__xnor2_1
X_0949_ net55 _0395_ VSS VSS VDD VDD _0396_ sky130_fd_sc_hd__nand2_1
X_0950_ _0152_ _0265_ VSS VSS VDD VDD _0397_ sky130_fd_sc_hd__nor2_1
X_0951_ net18 net17 net16 net15 net62 net61 VSS VSS VDD VDD
+ _0398_ sky130_fd_sc_hd__mux4_2
X_0952_ net60 _0398_ VSS VSS VDD VDD _0399_ sky130_fd_sc_hd__nor2_1
X_0953_ _0329_ _0397_ _0399_ VSS VSS VDD VDD _0400_ sky130_fd_sc_hd__nor3_1
X_0954_ net18 net20 net7 net9 net61 net60 VSS VSS VDD VDD
+ _0401_ sky130_fd_sc_hd__mux4_1
X_0955_ _0401_ _0005_ VSS VSS VDD VDD _0402_ sky130_fd_sc_hd__nand2b_1
X_0956_ _0005_ _0247_ _0402_ _0202_ VSS VSS VDD VDD _0403_
+ sky130_fd_sc_hd__o211a_1
X_0957_ _0400_ _0403_ _0132_ VSS VSS VDD VDD _0404_ sky130_fd_sc_hd__o21ai_0
X_0958_ _0274_ _0386_ _0392_ _0396_ _0404_ VSS VSS VDD VDD
+ net50 sky130_fd_sc_hd__o2111ai_1
X_0959_ net61 _0311_ _0312_ net60 VSS VSS VDD VDD _0405_ sky130_fd_sc_hd__o211ai_1
X_0960_ net17 net16 net15 net14 net62 net61 VSS VSS VDD VDD
+ _0406_ sky130_fd_sc_hd__mux4_2
X_0961_ _0152_ _0406_ VSS VSS VDD VDD _0407_ sky130_fd_sc_hd__nand2_1
X_0962_ _0405_ _0407_ _0329_ VSS VSS VDD VDD _0408_ sky130_fd_sc_hd__a21oi_1
X_0963_ _0336_ _0401_ net62 VSS VSS VDD VDD _0409_ sky130_fd_sc_hd__mux2i_1
X_0964_ _0132_ _0409_ _0250_ VSS VSS VDD VDD _0410_ sky130_fd_sc_hd__a21oi_1
X_0965_ net11 net10 _0164_ VSS VSS VDD VDD _0411_ sky130_fd_sc_hd__mux2i_1
X_0966_ net61 _0303_ VSS VSS VDD VDD _0412_ sky130_fd_sc_hd__or2_2
X_0967_ _0286_ _0411_ _0412_ _0339_ net59 VSS VSS VDD VDD
+ _0413_ sky130_fd_sc_hd__o221ai_1
X_0968_ _0408_ _0410_ _0413_ VSS VSS VDD VDD _0414_ sky130_fd_sc_hd__o21a_1
X_0969_ _0037_ _0045_ _0053_ VSS VSS VDD VDD _0415_ sky130_fd_sc_hd__and3_1
X_0970_ _0053_ _0044_ VSS VSS VDD VDD _0416_ sky130_fd_sc_hd__and2_1
X_0971_ _0045_ _0053_ _0036_ VSS VSS VDD VDD _0417_ sky130_fd_sc_hd__and3_1
X_0972_ _0361_ _0415_ _0416_ _0417_ _0052_ VSS VSS VDD VDD
+ _0418_ sky130_fd_sc_hd__a2111oi_0
X_0973_ _0061_ _0418_ VSS VSS VDD VDD _0419_ sky130_fd_sc_hd__xor2_1
X_0974_ _0274_ _0419_ VSS VSS VDD VDD _0420_ sky130_fd_sc_hd__nor2_1
X_0975_ net12 net13 net14 net15 VSS VSS VDD VDD _0421_ sky130_fd_sc_hd__and4_1
X_0976_ net16 _0421_ VSS VSS VDD VDD _0422_ sky130_fd_sc_hd__nand2_1
X_0977_ _0054_ _0422_ VSS VSS VDD VDD _0423_ sky130_fd_sc_hd__xnor2_1
X_0978_ _0058_ _0355_ _0356_ _0057_ VSS VSS VDD VDD _0424_
+ sky130_fd_sc_hd__a22oi_1
X_0979_ net63 net4 _0424_ VSS VSS VDD VDD _0425_ sky130_fd_sc_hd__or3_1
X_0980_ _0056_ _0237_ _0423_ _0241_ _0425_ VSS VSS VDD VDD
+ _0426_ sky130_fd_sc_hd__o221a_2
X_0981_ _0414_ _0420_ _0426_ VSS VSS VDD VDD net49 sky130_fd_sc_hd__or3b_2
X_0982_ _0090_ VSS VSS VDD VDD _0427_ sky130_fd_sc_hd__inv_1
X_0983_ _0082_ _0069_ VSS VSS VDD VDD _0428_ sky130_fd_sc_hd__nand2_1
X_0984_ _0082_ _0068_ _0081_ VSS VSS VDD VDD _0429_ sky130_fd_sc_hd__a21oi_1
X_0985_ _0382_ _0384_ _0428_ _0429_ VSS VSS VDD VDD _0430_
+ sky130_fd_sc_hd__o31ai_1
X_0986_ _0427_ _0430_ VSS VSS VDD VDD _0431_ sky130_fd_sc_hd__xnor2_1
X_0987_ _0126_ net59 _0286_ VSS VSS VDD VDD _0432_ sky130_fd_sc_hd__a21oi_1
X_0988_ net59 _0227_ _0432_ VSS VSS VDD VDD _0433_ sky130_fd_sc_hd__o21ai_0
X_0989_ net17 net18 net19 _0393_ VSS VSS VDD VDD _0434_ sky130_fd_sc_hd__nand4_1
X_0990_ net20 _0434_ VSS VSS VDD VDD _0435_ sky130_fd_sc_hd__xnor2_1
X_0991_ net3 net4 net2 VSS VSS VDD VDD _0436_ sky130_fd_sc_hd__or3b_2
X_0992_ _0077_ VSS VSS VDD VDD _0437_ sky130_fd_sc_hd__inv_1
X_0993_ _0078_ _0437_ net63 VSS VSS VDD VDD _0438_ sky130_fd_sc_hd__mux2i_1
X_0994_ _0436_ _0438_ VSS VSS VDD VDD _0439_ sky130_fd_sc_hd__nor2_1
X_0995_ _0079_ net56 _0435_ net55 _0439_ VSS VSS VDD VDD _0440_
+ sky130_fd_sc_hd__a221oi_1
X_0996_ _0012_ _0207_ VSS VSS VDD VDD _0441_ sky130_fd_sc_hd__nand2_1
X_0997_ net60 _0441_ _0329_ VSS VSS VDD VDD _0442_ sky130_fd_sc_hd__nor3_1
X_0998_ net19 net17 net15 net13 net61 net60 VSS VSS VDD VDD
+ _0443_ sky130_fd_sc_hd__mux4_2
X_0999_ net20 net18 net16 net14 net61 net60 VSS VSS VDD VDD
+ _0444_ sky130_fd_sc_hd__mux4_2
X_1000_ _0335_ _0443_ _0444_ _0334_ VSS VSS VDD VDD _0445_
+ sky130_fd_sc_hd__o22ai_1
X_1001_ _0329_ _0445_ VSS VSS VDD VDD _0446_ sky130_fd_sc_hd__nor2_1
X_1002_ _0132_ _0442_ _0446_ _0234_ VSS VSS VDD VDD _0447_
+ sky130_fd_sc_hd__o22ai_1
X_1003_ _0433_ _0440_ _0447_ VSS VSS VDD VDD _0448_ sky130_fd_sc_hd__nand3_1
X_1004_ _0148_ _0431_ _0448_ VSS VSS VDD VDD net52 sky130_fd_sc_hd__a21o_1
X_1005_ _0082_ _0274_ VSS VSS VDD VDD _0449_ sky130_fd_sc_hd__nor2_1
X_1006_ _0082_ _0148_ VSS VSS VDD VDD _0450_ sky130_fd_sc_hd__and2_1
X_1007_ _0061_ _0381_ _0060_ VSS VSS VDD VDD _0451_ sky130_fd_sc_hd__a21o_1
X_1008_ _0363_ _0364_ _0383_ VSS VSS VDD VDD _0452_ sky130_fd_sc_hd__o21ai_0
X_1009_ _0069_ _0451_ _0452_ _0068_ VSS VSS VDD VDD _0453_
+ sky130_fd_sc_hd__a31oi_1
X_1010_ _0449_ _0450_ _0453_ VSS VSS VDD VDD _0454_ sky130_fd_sc_hd__mux2i_1
X_1011_ net19 net18 net17 net16 net62 net61 VSS VSS VDD VDD
+ _0455_ sky130_fd_sc_hd__mux4_2
X_1012_ net61 net59 _0009_ VSS VSS VDD VDD _0456_ sky130_fd_sc_hd__and3b_1
X_1013_ _0132_ _0455_ _0456_ VSS VSS VDD VDD _0457_ sky130_fd_sc_hd__a21oi_1
X_1014_ net15 net14 net13 net12 net62 net61 VSS VSS VDD VDD
+ _0458_ sky130_fd_sc_hd__mux4_2
X_1015_ _0278_ _0458_ VSS VSS VDD VDD _0459_ sky130_fd_sc_hd__nand2_1
X_1016_ net60 _0457_ _0459_ VSS VSS VDD VDD _0460_ sky130_fd_sc_hd__o21ai_0
X_1017_ _0132_ _0202_ _0248_ VSS VSS VDD VDD _0461_ sky130_fd_sc_hd__and3_1
X_1018_ _0072_ net63 VSS VSS VDD VDD _0462_ sky130_fd_sc_hd__nand2b_1
X_1019_ net63 _0073_ VSS VSS VDD VDD _0463_ sky130_fd_sc_hd__nand2b_1
X_1020_ _0462_ _0463_ _0436_ VSS VSS VDD VDD _0464_ sky130_fd_sc_hd__a21oi_1
X_1021_ _0074_ net56 _0391_ _0464_ VSS VSS VDD VDD _0465_
+ sky130_fd_sc_hd__a211o_1
X_1022_ net16 net17 net18 VSS VSS VDD VDD _0466_ sky130_fd_sc_hd__and3_1
X_1023_ net19 _0241_ VSS VSS VDD VDD _0467_ sky130_fd_sc_hd__nor2_1
X_1024_ _0421_ _0466_ _0070_ _0241_ VSS VSS VDD VDD _0468_
+ sky130_fd_sc_hd__a211oi_1
X_1025_ _0421_ _0466_ _0467_ _0468_ VSS VSS VDD VDD _0469_
+ sky130_fd_sc_hd__a31o_2
X_1026_ net58 _0460_ _0461_ _0465_ _0469_ VSS VSS VDD VDD
+ _0470_ sky130_fd_sc_hd__a2111oi_0
X_1027_ _0454_ _0470_ VSS VSS VDD VDD net51 sky130_fd_sc_hd__nand2_1
X_1028_ _0036_ _0044_ _0052_ _0273_ VSS VSS VDD VDD _0471_
+ sky130_fd_sc_hd__nor4_1
X_1029_ _0090_ _0098_ VSS VSS VDD VDD _0472_ sky130_fd_sc_hd__nand2_1
X_1030_ _0428_ _0472_ VSS VSS VDD VDD _0473_ sky130_fd_sc_hd__nor2_1
X_1031_ _0052_ _0321_ _0473_ _0061_ VSS VSS VDD VDD _0474_
+ sky130_fd_sc_hd__o211ai_1
X_1032_ _0427_ _0429_ _0089_ VSS VSS VDD VDD _0475_ sky130_fd_sc_hd__o21bai_1
X_1033_ _0060_ _0473_ _0475_ _0098_ _0097_ VSS VSS VDD VDD
+ _0476_ sky130_fd_sc_hd__a221oi_1