*SPEF "ieee 1481-1999"
*DESIGN "Register_file"
*DATE "16:41:39 Sunday November 16, 2025"
*VENDOR "The OpenROAD Project"
*PROGRAM "OpenROAD"
*VERSION "edf00dff99f6c40d67a30c0e22a8191c5d2ed9d6"
*DESIGN_FLOW "NAME_SCOPE LOCAL" "PIN_CAP NONE"
*DIVIDER /
*DELIMITER :
*BUS_DELIMITER []
*T_UNIT 1 NS
*C_UNIT 1 PF
*R_UNIT 1 OHM
*L_UNIT 1 HENRY

*NAME_MAP
*1 A1[0]
*2 A1[1]
*3 A1[2]
*4 A2[0]
*5 A2[1]
*6 A2[2]
*7 A3[0]
*8 A3[1]
*9 A3[2]
*10 RD1[0]
*11 RD1[10]
*12 RD1[11]
*13 RD1[12]
*14 RD1[13]
*15 RD1[14]
*16 RD1[15]
*17 RD1[1]
*18 RD1[2]
*19 RD1[3]
*20 RD1[4]
*21 RD1[5]
*22 RD1[6]
*23 RD1[7]
*24 RD1[8]
*25 RD1[9]
*26 RD2[0]
*27 RD2[10]
*28 RD2[11]
*29 RD2[12]
*30 RD2[13]
*31 RD2[14]
*32 RD2[15]
*33 RD2[1]
*34 RD2[2]
*35 RD2[3]
*36 RD2[4]
*37 RD2[5]
*38 RD2[6]
*39 RD2[7]
*40 RD2[8]
*41 RD2[9]
*42 RegWrite
*45 WD3[0]
*46 WD3[10]
*47 WD3[11]
*48 WD3[12]
*49 WD3[13]
*50 WD3[14]
*51 WD3[15]
*52 WD3[1]
*53 WD3[2]
*54 WD3[3]
*55 WD3[4]
*56 WD3[5]
*57 WD3[6]
*58 WD3[7]
*59 WD3[8]
*60 WD3[9]
*61 clk
*62 _000_
*63 _001_
*64 _002_
*65 _003_
*66 _004_
*67 _005_
*68 _006_
*69 _007_
*70 _008_
*71 _009_
*72 _010_
*73 _011_
*74 _012_
*75 _013_
*76 _014_
*77 _015_
*78 _016_
*79 _017_
*80 _018_
*81 _019_
*82 _020_
*83 _021_
*84 _022_
*85 _023_
*86 _024_
*87 _025_
*88 _026_
*89 _027_
*90 _028_
*91 _029_
*92 _030_
*93 _031_
*94 _032_
*95 _033_
*96 _034_
*97 _035_
*98 _036_
*99 _037_
*100 _038_
*101 _039_
*102 _040_
*103 _041_
*104 _042_
*105 _043_
*106 _044_
*107 _045_
*108 _046_
*109 _047_
*110 _048_
*111 _049_
*112 _050_
*113 _051_
*114 _052_
*115 _053_
*116 _054_
*117 _055_
*118 _056_
*119 _057_
*120 _058_
*121 _059_
*122 _060_
*123 _061_
*124 _062_
*125 _063_
*126 _064_
*127 _065_
*128 _066_
*129 _067_
*130 _068_
*131 _069_
*132 _070_
*133 _071_
*134 _072_
*135 _073_
*136 _074_
*137 _075_
*138 _076_
*139 _077_
*140 _078_
*141 _079_
*142 _080_
*143 _081_
*144 _082_
*145 _083_
*146 _084_
*147 _085_
*148 _086_
*149 _087_
*150 _088_
*151 _089_
*152 _090_
*153 _091_
*154 _092_
*155 _093_
*156 _094_
*157 _095_
*158 _096_
*159 _097_
*160 _098_
*161 _099_
*162 _100_
*163 _101_
*164 _102_
*165 _103_
*166 _104_
*167 _105_
*168 _106_
*169 _107_
*170 _108_
*171 _109_
*172 _110_
*173 _111_
*174 _112_
*175 _113_
*176 _114_
*177 _115_
*178 _116_
*179 _117_
*180 _118_
*181 _119_
*182 _120_
*183 _121_
*184 _122_
*185 _123_
*186 _124_
*187 _125_
*188 _126_
*189 _127_
*190 _128_
*191 _129_
*192 _130_
*193 _131_
*194 _132_
*195 _133_
*196 _134_
*197 _135_
*198 _136_
*199 _137_
*200 _138_
*201 _139_
*202 _140_
*203 _141_
*204 _142_
*205 _143_
*206 _144_
*207 _145_
*208 _146_
*209 _147_
*210 _148_
*211 _149_
*212 _150_
*213 _151_
*214 _152_
*215 _153_
*216 _154_
*217 _155_
*218 _156_
*219 _157_
*220 _158_
*221 _159_
*222 _160_
*223 _161_
*224 _162_
*225 _163_
*226 _164_
*227 _165_
*228 _166_
*229 _167_
*230 _168_
*231 _169_
*232 _170_
*233 _171_
*234 _172_
*235 _173_
*236 _174_
*237 _175_
*238 _176_
*239 _177_
*240 _178_
*241 _179_
*242 _180_
*243 _181_
*244 _182_
*245 _183_
*246 _184_
*247 _185_
*248 _186_
*249 _187_
*250 _188_
*251 _189_
*252 _190_
*253 _191_
*254 _192_
*255 _193_
*256 _194_
*257 _195_
*258 _196_
*259 _197_
*260 _198_
*261 _199_
*262 _200_
*263 _201_
*264 _202_
*265 _203_
*266 _204_
*267 _205_
*268 _206_
*269 _207_
*270 _208_
*271 _209_
*272 _210_
*273 _211_
*274 _212_
*275 _213_
*276 _214_
*277 _215_
*278 _216_
*279 _217_
*280 _218_
*281 _219_
*282 _220_
*283 _221_
*284 _222_
*285 _223_
*286 _224_
*287 _225_
*288 _226_
*289 _227_
*290 _228_
*291 _229_
*292 _230_
*293 _231_
*294 _232_
*295 _233_
*296 _234_
*297 _235_
*298 _236_
*299 _237_
*300 _238_
*301 _239_
*302 _240_
*303 _241_
*304 _242_
*305 _243_
*306 _244_
*307 _245_
*308 _246_
*309 _247_
*310 _248_
*311 _249_
*312 _250_
*313 _251_
*314 _252_
*315 _253_
*316 clknet_0_clk
*317 clknet_3_0__leaf_clk
*318 clknet_3_1__leaf_clk
*319 clknet_3_2__leaf_clk
*320 clknet_3_3__leaf_clk
*321 clknet_3_4__leaf_clk
*322 clknet_3_5__leaf_clk
*323 clknet_3_6__leaf_clk
*324 clknet_3_7__leaf_clk
*325 net1
*326 net10
*327 net100
*328 net101
*329 net102
*330 net103
*331 net104
*332 net105
*333 net106
*334 net107
*335 net108
*336 net109
*337 net11
*338 net110
*339 net111
*340 net112
*341 net113
*342 net114
*343 net115
*344 net116
*345 net117
*346 net118
*347 net119
*348 net12
*349 net120
*350 net121
*351 net122
*352 net123
*353 net124
*354 net125
*355 net126
*356 net127
*357 net128
*358 net129
*359 net13
*360 net130
*361 net131
*362 net132
*363 net133
*364 net134
*365 net135
*366 net136
*367 net137
*368 net138
*369 net139
*370 net14
*371 net140
*372 net141
*373 net142
*374 net143
*375 net144
*376 net145
*377 net146
*378 net147
*379 net148
*380 net149
*381 net15
*382 net150
*383 net151
*384 net152
*385 net153
*386 net154
*387 net155
*388 net156
*389 net157
*390 net158
*391 net159
*392 net16
*393 net160
*394 net161
*395 net162
*396 net163
*397 net164
*398 net165
*399 net166
*400 net167
*401 net168
*402 net169
*403 net17
*404 net170
*405 net171
*406 net172
*407 net173
*408 net174
*409 net175
*410 net176
*411 net177
*412 net178
*413 net179
*414 net18
*415 net180
*416 net181
*417 net182
*418 net183
*419 net184
*420 net185
*421 net186
*422 net187
*423 net188
*424 net189
*425 net19
*426 net190
*427 net191
*428 net192
*429 net193
*430 net194
*431 net195
*432 net196
*433 net197
*434 net198
*435 net199
*436 net2
*437 net20
*438 net200
*439 net201
*440 net202
*441 net203
*442 net204
*443 net205
*444 net206
*445 net207
*446 net208
*447 net209
*448 net21
*449 net210
*450 net211
*451 net212
*452 net22
*453 net23
*454 net24
*455 net25
*456 net26
*457 net27
*458 net28
*459 net29
*460 net3
*461 net30
*462 net31
*463 net32
*464 net33
*465 net34
*466 net35
*467 net36
*468 net37
*469 net38
*470 net39
*471 net4
*472 net40
*473 net41
*474 net42
*475 net43
*476 net44
*477 net45
*478 net46
*479 net47
*480 net48
*481 net49
*482 net5
*483 net50
*484 net51
*485 net52
*486 net53
*487 net54
*488 net55
*489 net56
*490 net57
*491 net58
*492 net59
*493 net6
*494 net60
*495 net61
*496 net62
*497 net63
*498 net64
*499 net65
*500 net66
*501 net67
*502 net68
*503 net69
*504 net7
*505 net70
*506 net71
*507 net72
*508 net73
*509 net74
*510 net75
*511 net76
*512 net77
*513 net78
*514 net79
*515 net8
*516 net80
*517 net81
*518 net82
*519 net83
*520 net84
*521 net85
*522 net86
*523 net87
*524 net88
*525 net89
*526 net9
*527 net90
*528 net91
*529 net92
*530 net93
*531 net94
*532 net95
*533 net96
*534 net97
*535 net98
*536 net99
*537 reg_array\[1\]\[0\]
*538 reg_array\[1\]\[10\]
*539 reg_array\[1\]\[11\]
*540 reg_array\[1\]\[12\]
*541 reg_array\[1\]\[13\]
*542 reg_array\[1\]\[14\]
*543 reg_array\[1\]\[15\]
*544 reg_array\[1\]\[1\]
*545 reg_array\[1\]\[2\]
*546 reg_array\[1\]\[3\]
*547 reg_array\[1\]\[4\]
*548 reg_array\[1\]\[5\]
*549 reg_array\[1\]\[6\]
*550 reg_array\[1\]\[7\]
*551 reg_array\[1\]\[8\]
*552 reg_array\[1\]\[9\]
*553 reg_array\[2\]\[0\]
*554 reg_array\[2\]\[10\]
*555 reg_array\[2\]\[11\]
*556 reg_array\[2\]\[12\]
*557 reg_array\[2\]\[13\]
*558 reg_array\[2\]\[14\]
*559 reg_array\[2\]\[15\]
*560 reg_array\[2\]\[1\]
*561 reg_array\[2\]\[2\]
*562 reg_array\[2\]\[3\]
*563 reg_array\[2\]\[4\]
*564 reg_array\[2\]\[5\]
*565 reg_array\[2\]\[6\]
*566 reg_array\[2\]\[7\]
*567 reg_array\[2\]\[8\]
*568 reg_array\[2\]\[9\]
*569 reg_array\[3\]\[0\]
*570 reg_array\[3\]\[10\]
*571 reg_array\[3\]\[11\]
*572 reg_array\[3\]\[12\]
*573 reg_array\[3\]\[13\]
*574 reg_array\[3\]\[14\]
*575 reg_array\[3\]\[15\]
*576 reg_array\[3\]\[1\]
*577 reg_array\[3\]\[2\]
*578 reg_array\[3\]\[3\]
*579 reg_array\[3\]\[4\]
*580 reg_array\[3\]\[5\]
*581 reg_array\[3\]\[6\]
*582 reg_array\[3\]\[7\]
*583 reg_array\[3\]\[8\]
*584 reg_array\[3\]\[9\]
*585 reg_array\[4\]\[0\]
*586 reg_array\[4\]\[10\]
*587 reg_array\[4\]\[11\]
*588 reg_array\[4\]\[12\]
*589 reg_array\[4\]\[13\]
*590 reg_array\[4\]\[14\]
*591 reg_array\[4\]\[15\]
*592 reg_array\[4\]\[1\]
*593 reg_array\[4\]\[2\]
*594 reg_array\[4\]\[3\]
*595 reg_array\[4\]\[4\]
*596 reg_array\[4\]\[5\]
*597 reg_array\[4\]\[6\]
*598 reg_array\[4\]\[7\]
*599 reg_array\[4\]\[8\]
*600 reg_array\[4\]\[9\]
*601 reg_array\[5\]\[0\]
*602 reg_array\[5\]\[10\]
*603 reg_array\[5\]\[11\]
*604 reg_array\[5\]\[12\]
*605 reg_array\[5\]\[13\]
*606 reg_array\[5\]\[14\]
*607 reg_array\[5\]\[15\]
*608 reg_array\[5\]\[1\]
*609 reg_array\[5\]\[2\]
*610 reg_array\[5\]\[3\]
*611 reg_array\[5\]\[4\]
*612 reg_array\[5\]\[5\]
*613 reg_array\[5\]\[6\]
*614 reg_array\[5\]\[7\]
*615 reg_array\[5\]\[8\]
*616 reg_array\[5\]\[9\]
*617 reg_array\[6\]\[0\]
*618 reg_array\[6\]\[10\]
*619 reg_array\[6\]\[11\]
*620 reg_array\[6\]\[12\]
*621 reg_array\[6\]\[13\]
*622 reg_array\[6\]\[14\]
*623 reg_array\[6\]\[15\]
*624 reg_array\[6\]\[1\]
*625 reg_array\[6\]\[2\]
*626 reg_array\[6\]\[3\]
*627 reg_array\[6\]\[4\]
*628 reg_array\[6\]\[5\]
*629 reg_array\[6\]\[6\]
*630 reg_array\[6\]\[7\]
*631 reg_array\[6\]\[8\]
*632 reg_array\[6\]\[9\]
*633 reg_array\[7\]\[0\]
*634 reg_array\[7\]\[10\]
*635 reg_array\[7\]\[11\]
*636 reg_array\[7\]\[12\]
*637 reg_array\[7\]\[13\]
*638 reg_array\[7\]\[14\]
*639 reg_array\[7\]\[15\]
*640 reg_array\[7\]\[1\]
*641 reg_array\[7\]\[2\]
*642 reg_array\[7\]\[3\]
*643 reg_array\[7\]\[4\]
*644 reg_array\[7\]\[5\]
*645 reg_array\[7\]\[6\]
*646 reg_array\[7\]\[7\]
*647 reg_array\[7\]\[8\]
*648 reg_array\[7\]\[9\]
*649 FILLER_0_113
*650 FILLER_0_119
*651 FILLER_0_131
*652 FILLER_0_139
*653 FILLER_0_15
*654 FILLER_0_155
*655 FILLER_0_161
*656 FILLER_0_167
*657 FILLER_0_169
*658 FILLER_0_175
*659 FILLER_0_187
*660 FILLER_0_195
*661 FILLER_0_197
*662 FILLER_0_209
*663 FILLER_0_221
*664 FILLER_0_225
*665 FILLER_0_23
*666 FILLER_0_29
*667 FILLER_0_3
*668 FILLER_0_41
*669 FILLER_0_45
*670 FILLER_0_55
*671 FILLER_0_74
*672 FILLER_0_91
*673 FILLER_10_117
*674 FILLER_10_137
*675 FILLER_10_15
*676 FILLER_10_150
*677 FILLER_10_167
*678 FILLER_10_175
*679 FILLER_10_186
*680 FILLER_10_3
*681 FILLER_10_38
*682 FILLER_10_60
*683 FILLER_10_64
*684 FILLER_10_81
*685 FILLER_10_85
*686 FILLER_11_108
*687 FILLER_11_11
*688 FILLER_11_120
*689 FILLER_11_126
*690 FILLER_11_135
*691 FILLER_11_146
*692 FILLER_11_201
*693 FILLER_11_225
*694 FILLER_11_3
*695 FILLER_11_45
*696 FILLER_11_55
*697 FILLER_11_90
*698 FILLER_12_114
*699 FILLER_12_126
*700 FILLER_12_139
*701 FILLER_12_157
*702 FILLER_12_19
*703 FILLER_12_190
*704 FILLER_12_206
*705 FILLER_12_29
*706 FILLER_12_63
*707 FILLER_12_7
*708 FILLER_12_85
*709 FILLER_13_109
*710 FILLER_13_122
*711 FILLER_13_141
*712 FILLER_13_15
*713 FILLER_13_154
*714 FILLER_13_166
*715 FILLER_13_219
*716 FILLER_13_223
*717 FILLER_13_3
*718 FILLER_13_43
*719 FILLER_13_66
*720 FILLER_13_76
*721 FILLER_14_130
*722 FILLER_14_138
*723 FILLER_14_141
*724 FILLER_14_15
*725 FILLER_14_152
*726 FILLER_14_161
*727 FILLER_14_172
*728 FILLER_14_180
*729 FILLER_14_187
*730 FILLER_14_204
*731 FILLER_14_26
*732 FILLER_14_29
*733 FILLER_14_39
*734 FILLER_14_7
*735 FILLER_14_85
*736 FILLER_14_89
*737 FILLER_15_100
*738 FILLER_15_122
*739 FILLER_15_143
*740 FILLER_15_164
*741 FILLER_15_177
*742 FILLER_15_19
*743 FILLER_15_209
*744 FILLER_15_213
*745 FILLER_16_101
*746 FILLER_16_107
*747 FILLER_16_111
*748 FILLER_16_119
*749 FILLER_16_123
*750 FILLER_16_150
*751 FILLER_16_172
*752 FILLER_16_178
*753 FILLER_16_195
*754 FILLER_16_227
*755 FILLER_16_50
*756 FILLER_16_80
*757 FILLER_17_124
*758 FILLER_17_143
*759 FILLER_17_178
*760 FILLER_17_42
*761 FILLER_17_98
*762 FILLER_18_133
*763 FILLER_18_139
*764 FILLER_18_181
*765 FILLER_18_194
*766 FILLER_18_212
*767 FILLER_18_228
*768 FILLER_18_26
*769 FILLER_18_29
*770 FILLER_18_41
*771 FILLER_18_45
*772 FILLER_18_7
*773 FILLER_18_71
*774 FILLER_19_133
*775 FILLER_19_141
*776 FILLER_19_161
*777 FILLER_19_167
*778 FILLER_19_18
*779 FILLER_19_185
*780 FILLER_19_204
*781 FILLER_19_32
*782 FILLER_19_44
*783 FILLER_19_6
*784 FILLER_19_99
*785 FILLER_1_102
*786 FILLER_1_110
*787 FILLER_1_113
*788 FILLER_1_125
*789 FILLER_1_133
*790 FILLER_1_15
*791 FILLER_1_167
*792 FILLER_1_169
*793 FILLER_1_181
*794 FILLER_1_193
*795 FILLER_1_205
*796 FILLER_1_217
*797 FILLER_1_223
*798 FILLER_1_225
*799 FILLER_1_27
*800 FILLER_1_3
*801 FILLER_1_39
*802 FILLER_1_65
*803 FILLER_20_126
*804 FILLER_20_138
*805 FILLER_20_150
*806 FILLER_20_174
*807 FILLER_20_6
*808 FILLER_20_62
*809 FILLER_20_70
*810 FILLER_20_80
*811 FILLER_20_89
*812 FILLER_21_111
*813 FILLER_21_129
*814 FILLER_21_162
*815 FILLER_21_34
*816 FILLER_21_42
*817 FILLER_21_52
*818 FILLER_21_6
*819 FILLER_21_65
*820 FILLER_21_69
*821 FILLER_21_84
*822 FILLER_22_138
*823 FILLER_22_150
*824 FILLER_22_183
*825 FILLER_22_19
*826 FILLER_22_195
*827 FILLER_22_27
*828 FILLER_22_35
*829 FILLER_22_63
*830 FILLER_22_67
*831 FILLER_22_7
*832 FILLER_22_83
*833 FILLER_22_90
*834 FILLER_23_117
*835 FILLER_23_129
*836 FILLER_23_133
*837 FILLER_23_162
*838 FILLER_23_194
*839 FILLER_23_202
*840 FILLER_23_221
*841 FILLER_23_225
*842 FILLER_23_27
*843 FILLER_23_38
*844 FILLER_23_55
*845 FILLER_24_118
*846 FILLER_24_149
*847 FILLER_24_167
*848 FILLER_24_206
*849 FILLER_24_81
*850 FILLER_25_109
*851 FILLER_25_138
*852 FILLER_25_157
*853 FILLER_25_167
*854 FILLER_25_177
*855 FILLER_25_3
*856 FILLER_25_37
*857 FILLER_25_66
*858 FILLER_25_92
*859 FILLER_26_106
*860 FILLER_26_110
*861 FILLER_26_136
*862 FILLER_26_141
*863 FILLER_26_168
*864 FILLER_26_193
*865 FILLER_26_61
*866 FILLER_27_108
*867 FILLER_27_113
*868 FILLER_27_117
*869 FILLER_27_148
*870 FILLER_27_178
*871 FILLER_27_182
*872 FILLER_27_212
*873 FILLER_27_38
*874 FILLER_27_55
*875 FILLER_27_64
*876 FILLER_27_81
*877 FILLER_28_110
*878 FILLER_28_128
*879 FILLER_28_138
*880 FILLER_28_158
*881 FILLER_28_192
*882 FILLER_28_197
*883 FILLER_28_203
*884 FILLER_28_226
*885 FILLER_28_25
*886 FILLER_28_29
*887 FILLER_28_33
*888 FILLER_28_64
*889 FILLER_28_7
*890 FILLER_28_81
*891 FILLER_29_106
*892 FILLER_29_11
*893 FILLER_29_113
*894 FILLER_29_125
*895 FILLER_29_148
*896 FILLER_29_160
*897 FILLER_29_169
*898 FILLER_29_17
*899 FILLER_29_178
*900 FILLER_29_202
*901 FILLER_29_35
*902 FILLER_29_47
*903 FILLER_29_62
*904 FILLER_29_72
*905 FILLER_29_87
*906 FILLER_2_102
*907 FILLER_2_114
*908 FILLER_2_126
*909 FILLER_2_138
*910 FILLER_2_15
*911 FILLER_2_164
*912 FILLER_2_176
*913 FILLER_2_184
*914 FILLER_2_197
*915 FILLER_2_209
*916 FILLER_2_221
*917 FILLER_2_27
*918 FILLER_2_29
*919 FILLER_2_3
*920 FILLER_2_41
*921 FILLER_2_53
*922 FILLER_2_61
*923 FILLER_2_65
*924 FILLER_2_70
*925 FILLER_2_80
*926 FILLER_30_116
*927 FILLER_30_128
*928 FILLER_30_148
*929 FILLER_30_192
*930 FILLER_30_197
*931 FILLER_30_216
*932 FILLER_30_227
*933 FILLER_30_24
*934 FILLER_30_29
*935 FILLER_30_3
*936 FILLER_30_57
*937 FILLER_30_7
*938 FILLER_30_85
*939 FILLER_30_91
*940 FILLER_31_111
*941 FILLER_31_113
*942 FILLER_31_150
*943 FILLER_31_167
*944 FILLER_31_223
*945 FILLER_31_53
*946 FILLER_31_57
*947 FILLER_31_6
*948 FILLER_31_84
*949 FILLER_32_111
*950 FILLER_32_13
*951 FILLER_32_133
*952 FILLER_32_157
*953 FILLER_32_167
*954 FILLER_32_193
*955 FILLER_32_213
*956 FILLER_32_228
*957 FILLER_32_25
*958 FILLER_32_29
*959 FILLER_32_83
*960 FILLER_32_85
*961 FILLER_33_109
*962 FILLER_33_113
*963 FILLER_33_121
*964 FILLER_33_133
*965 FILLER_33_148
*966 FILLER_33_169
*967 FILLER_33_187
*968 FILLER_33_212
*969 FILLER_33_225
*970 FILLER_33_3
*971 FILLER_33_32
*972 FILLER_33_44
*973 FILLER_33_52
*974 FILLER_33_57
*975 FILLER_33_87
*976 FILLER_33_91
*977 FILLER_34_110
*978 FILLER_34_122
*979 FILLER_34_130
*980 FILLER_34_139
*981 FILLER_34_141
*982 FILLER_34_145
*983 FILLER_34_156
*984 FILLER_34_18
*985 FILLER_34_185
*986 FILLER_34_193
*987 FILLER_34_197
*988 FILLER_34_205
*989 FILLER_34_26
*990 FILLER_34_57
*991 FILLER_34_6
*992 FILLER_34_69
*993 FILLER_34_81
*994 FILLER_34_85
*995 FILLER_34_97
*996 FILLER_35_103
*997 FILLER_35_119
*998 FILLER_35_131
*999 FILLER_35_158
*1000 FILLER_35_166
*1001 FILLER_35_185
*1002 FILLER_35_19
*1003 FILLER_35_197
*1004 FILLER_35_203
*1005 FILLER_35_220
*1006 FILLER_35_225
*1007 FILLER_35_35
*1008 FILLER_35_43
*1009 FILLER_35_55
*1010 FILLER_35_7
*1011 FILLER_35_77
*1012 FILLER_35_89
*1013 FILLER_35_93
*1014 FILLER_36_119
*1015 FILLER_36_131
*1016 FILLER_36_139
*1017 FILLER_36_15
*1018 FILLER_36_165
*1019 FILLER_36_179
*1020 FILLER_36_191
*1021 FILLER_36_195
*1022 FILLER_36_197
*1023 FILLER_36_209
*1024 FILLER_36_221
*1025 FILLER_36_27
*1026 FILLER_36_29
*1027 FILLER_36_3
*1028 FILLER_36_41
*1029 FILLER_36_49
*1030 FILLER_36_81
*1031 FILLER_36_85
*1032 FILLER_37_106
*1033 FILLER_37_113
*1034 FILLER_37_125
*1035 FILLER_37_137
*1036 FILLER_37_149
*1037 FILLER_37_15
*1038 FILLER_37_161
*1039 FILLER_37_167
*1040 FILLER_37_169
*1041 FILLER_37_181
*1042 FILLER_37_193
*1043 FILLER_37_205
*1044 FILLER_37_217
*1045 FILLER_37_223
*1046 FILLER_37_225
*1047 FILLER_37_27
*1048 FILLER_37_3
*1049 FILLER_37_39
*1050 FILLER_37_51
*1051 FILLER_37_55
*1052 FILLER_37_57
*1053 FILLER_37_61
*1054 FILLER_37_67
*1055 FILLER_37_79
*1056 FILLER_37_91
*1057 FILLER_37_99
*1058 FILLER_38_113
*1059 FILLER_38_119
*1060 FILLER_38_131
*1061 FILLER_38_139
*1062 FILLER_38_141
*1063 FILLER_38_147
*1064 FILLER_38_15
*1065 FILLER_38_154
*1066 FILLER_38_161
*1067 FILLER_38_167
*1068 FILLER_38_169
*1069 FILLER_38_181
*1070 FILLER_38_193
*1071 FILLER_38_197
*1072 FILLER_38_203
*1073 FILLER_38_215
*1074 FILLER_38_223
*1075 FILLER_38_225
*1076 FILLER_38_27
*1077 FILLER_38_29
*1078 FILLER_38_3
*1079 FILLER_38_41
*1080 FILLER_38_53
*1081 FILLER_38_57
*1082 FILLER_38_77
*1083 FILLER_38_83
*1084 FILLER_38_85
*1085 FILLER_38_93
*1086 FILLER_3_107
*1087 FILLER_3_111
*1088 FILLER_3_113
*1089 FILLER_3_120
*1090 FILLER_3_126
*1091 FILLER_3_15
*1092 FILLER_3_160
*1093 FILLER_3_169
*1094 FILLER_3_181
*1095 FILLER_3_206
*1096 FILLER_3_218
*1097 FILLER_3_225
*1098 FILLER_3_27
*1099 FILLER_3_3
*1100 FILLER_3_39
*1101 FILLER_3_52
*1102 FILLER_3_57
*1103 FILLER_3_89
*1104 FILLER_3_97
*1105 FILLER_4_123
*1106 FILLER_4_15
*1107 FILLER_4_158
*1108 FILLER_4_183
*1109 FILLER_4_195
*1110 FILLER_4_197
*1111 FILLER_4_205
*1112 FILLER_4_224
*1113 FILLER_4_228
*1114 FILLER_4_27
*1115 FILLER_4_3
*1116 FILLER_4_62
*1117 FILLER_4_82
*1118 FILLER_5_111
*1119 FILLER_5_113
*1120 FILLER_5_125
*1121 FILLER_5_129
*1122 FILLER_5_138
*1123 FILLER_5_15
*1124 FILLER_5_160
*1125 FILLER_5_195
*1126 FILLER_5_203
*1127 FILLER_5_220
*1128 FILLER_5_225
*1129 FILLER_5_3
*1130 FILLER_5_40
*1131 FILLER_5_46
*1132 FILLER_5_57
*1133 FILLER_5_65
*1134 FILLER_5_95
*1135 FILLER_5_99
*1136 FILLER_6_106
*1137 FILLER_6_137
*1138 FILLER_6_141
*1139 FILLER_6_157
*1140 FILLER_6_206
*1141 FILLER_6_217
*1142 FILLER_6_66
*1143 FILLER_6_83
*1144 FILLER_6_85
*1145 FILLER_6_97
*1146 FILLER_7_107
*1147 FILLER_7_111
*1148 FILLER_7_113
*1149 FILLER_7_125
*1150 FILLER_7_150
*1151 FILLER_7_162
*1152 FILLER_7_169
*1153 FILLER_7_173
*1154 FILLER_7_19
*1155 FILLER_7_50
*1156 FILLER_7_72
*1157 FILLER_7_84
*1158 FILLER_7_96
*1159 FILLER_8_11
*1160 FILLER_8_137
*1161 FILLER_8_195
*1162 FILLER_8_204
*1163 FILLER_8_21
*1164 FILLER_8_27
*1165 FILLER_8_3
*1166 FILLER_8_45
*1167 FILLER_8_49
*1168 FILLER_8_59
*1169 FILLER_8_81
*1170 FILLER_8_85
*1171 FILLER_9_108
*1172 FILLER_9_113
*1173 FILLER_9_15
*1174 FILLER_9_167
*1175 FILLER_9_169
*1176 FILLER_9_19
*1177 FILLER_9_215
*1178 FILLER_9_3
*1179 FILLER_9_36
*1180 FILLER_9_57
*1181 FILLER_9_90
*1182 PHY_EDGE_ROW_0_Left_39
*1183 PHY_EDGE_ROW_0_Right_0
*1184 PHY_EDGE_ROW_10_Left_49
*1185 PHY_EDGE_ROW_10_Right_10
*1186 PHY_EDGE_ROW_11_Left_50
*1187 PHY_EDGE_ROW_11_Right_11
*1188 PHY_EDGE_ROW_12_Left_51
*1189 PHY_EDGE_ROW_12_Right_12
*1190 PHY_EDGE_ROW_13_Left_52
*1191 PHY_EDGE_ROW_13_Right_13
*1192 PHY_EDGE_ROW_14_Left_53
*1193 PHY_EDGE_ROW_14_Right_14
*1194 PHY_EDGE_ROW_15_Left_54
*1195 PHY_EDGE_ROW_15_Right_15
*1196 PHY_EDGE_ROW_16_Left_55
*1197 PHY_EDGE_ROW_16_Right_16
*1198 PHY_EDGE_ROW_17_Left_56
*1199 PHY_EDGE_ROW_17_Right_17
*1200 PHY_EDGE_ROW_18_Left_57
*1201 PHY_EDGE_ROW_18_Right_18
*1202 PHY_EDGE_ROW_19_Left_58
*1203 PHY_EDGE_ROW_19_Right_19
*1204 PHY_EDGE_ROW_1_Left_40
*1205 PHY_EDGE_ROW_1_Right_1
*1206 PHY_EDGE_ROW_20_Left_59
*1207 PHY_EDGE_ROW_20_Right_20
*1208 PHY_EDGE_ROW_21_Left_60
*1209 PHY_EDGE_ROW_21_Right_21
*1210 PHY_EDGE_ROW_22_Left_61
*1211 PHY_EDGE_ROW_22_Right_22
*1212 PHY_EDGE_ROW_23_Left_62
*1213 PHY_EDGE_ROW_23_Right_23
*1214 PHY_EDGE_ROW_24_Left_63
*1215 PHY_EDGE_ROW_24_Right_24
*1216 PHY_EDGE_ROW_25_Left_64
*1217 PHY_EDGE_ROW_25_Right_25
*1218 PHY_EDGE_ROW_26_Left_65
*1219 PHY_EDGE_ROW_26_Right_26
*1220 PHY_EDGE_ROW_27_Left_66
*1221 PHY_EDGE_ROW_27_Right_27
*1222 PHY_EDGE_ROW_28_Left_67
*1223 PHY_EDGE_ROW_28_Right_28
*1224 PHY_EDGE_ROW_29_Left_68
*1225 PHY_EDGE_ROW_29_Right_29
*1226 PHY_EDGE_ROW_2_Left_41
*1227 PHY_EDGE_ROW_2_Right_2
*1228 PHY_EDGE_ROW_30_Left_69
*1229 PHY_EDGE_ROW_30_Right_30
*1230 PHY_EDGE_ROW_31_Left_70
*1231 PHY_EDGE_ROW_31_Right_31
*1232 PHY_EDGE_ROW_32_Left_71
*1233 PHY_EDGE_ROW_32_Right_32
*1234 PHY_EDGE_ROW_33_Left_72
*1235 PHY_EDGE_ROW_33_Right_33
*1236 PHY_EDGE_ROW_34_Left_73
*1237 PHY_EDGE_ROW_34_Right_34
*1238 PHY_EDGE_ROW_35_Left_74
*1239 PHY_EDGE_ROW_35_Right_35
*1240 PHY_EDGE_ROW_36_Left_75
*1241 PHY_EDGE_ROW_36_Right_36
*1242 PHY_EDGE_ROW_37_Left_76
*1243 PHY_EDGE_ROW_37_Right_37
*1244 PHY_EDGE_ROW_38_Left_77
*1245 PHY_EDGE_ROW_38_Right_38
*1246 PHY_EDGE_ROW_3_Left_42
*1247 PHY_EDGE_ROW_3_Right_3
*1248 PHY_EDGE_ROW_4_Left_43
*1249 PHY_EDGE_ROW_4_Right_4
*1250 PHY_EDGE_ROW_5_Left_44
*1251 PHY_EDGE_ROW_5_Right_5
*1252 PHY_EDGE_ROW_6_Left_45
*1253 PHY_EDGE_ROW_6_Right_6
*1254 PHY_EDGE_ROW_7_Left_46
*1255 PHY_EDGE_ROW_7_Right_7
*1256 PHY_EDGE_ROW_8_Left_47
*1257 PHY_EDGE_ROW_8_Right_8
*1258 PHY_EDGE_ROW_9_Left_48
*1259 PHY_EDGE_ROW_9_Right_9
*1260 TAP_TAPCELL_ROW_0_78
*1261 TAP_TAPCELL_ROW_0_79
*1262 TAP_TAPCELL_ROW_0_80
*1263 TAP_TAPCELL_ROW_0_81
*1264 TAP_TAPCELL_ROW_0_82
*1265 TAP_TAPCELL_ROW_0_83
*1266 TAP_TAPCELL_ROW_0_84
*1267 TAP_TAPCELL_ROW_0_85
*1268 TAP_TAPCELL_ROW_10_122
*1269 TAP_TAPCELL_ROW_10_123
*1270 TAP_TAPCELL_ROW_10_124
*1271 TAP_TAPCELL_ROW_10_125
*1272 TAP_TAPCELL_ROW_11_126
*1273 TAP_TAPCELL_ROW_11_127
*1274 TAP_TAPCELL_ROW_11_128
*1275 TAP_TAPCELL_ROW_11_129
*1276 TAP_TAPCELL_ROW_12_130
*1277 TAP_TAPCELL_ROW_12_131
*1278 TAP_TAPCELL_ROW_12_132
*1279 TAP_TAPCELL_ROW_12_133
*1280 TAP_TAPCELL_ROW_13_134
*1281 TAP_TAPCELL_ROW_13_135
*1282 TAP_TAPCELL_ROW_13_136
*1283 TAP_TAPCELL_ROW_13_137
*1284 TAP_TAPCELL_ROW_14_138
*1285 TAP_TAPCELL_ROW_14_139
*1286 TAP_TAPCELL_ROW_14_140
*1287 TAP_TAPCELL_ROW_14_141
*1288 TAP_TAPCELL_ROW_15_142
*1289 TAP_TAPCELL_ROW_15_143
*1290 TAP_TAPCELL_ROW_15_144
*1291 TAP_TAPCELL_ROW_15_145
*1292 TAP_TAPCELL_ROW_16_146
*1293 TAP_TAPCELL_ROW_16_147
*1294 TAP_TAPCELL_ROW_16_148
*1295 TAP_TAPCELL_ROW_16_149
*1296 TAP_TAPCELL_ROW_17_150
*1297 TAP_TAPCELL_ROW_17_151
*1298 TAP_TAPCELL_ROW_17_152
*1299 TAP_TAPCELL_ROW_17_153
*1300 TAP_TAPCELL_ROW_18_154
*1301 TAP_TAPCELL_ROW_18_155
*1302 TAP_TAPCELL_ROW_18_156
*1303 TAP_TAPCELL_ROW_18_157
*1304 TAP_TAPCELL_ROW_19_158
*1305 TAP_TAPCELL_ROW_19_159
*1306 TAP_TAPCELL_ROW_19_160
*1307 TAP_TAPCELL_ROW_19_161
*1308 TAP_TAPCELL_ROW_1_86
*1309 TAP_TAPCELL_ROW_1_87
*1310 TAP_TAPCELL_ROW_1_88
*1311 TAP_TAPCELL_ROW_1_89
*1312 TAP_TAPCELL_ROW_20_162
*1313 TAP_TAPCELL_ROW_20_163
*1314 TAP_TAPCELL_ROW_20_164
*1315 TAP_TAPCELL_ROW_20_165
*1316 TAP_TAPCELL_ROW_21_166
*1317 TAP_TAPCELL_ROW_21_167
*1318 TAP_TAPCELL_ROW_21_168
*1319 TAP_TAPCELL_ROW_21_169
*1320 TAP_TAPCELL_ROW_22_170
*1321 TAP_TAPCELL_ROW_22_171
*1322 TAP_TAPCELL_ROW_22_172
*1323 TAP_TAPCELL_ROW_22_173
*1324 TAP_TAPCELL_ROW_23_174
*1325 TAP_TAPCELL_ROW_23_175
*1326 TAP_TAPCELL_ROW_23_176
*1327 TAP_TAPCELL_ROW_23_177
*1328 TAP_TAPCELL_ROW_24_178
*1329 TAP_TAPCELL_ROW_24_179
*1330 TAP_TAPCELL_ROW_24_180
*1331 TAP_TAPCELL_ROW_24_181
*1332 TAP_TAPCELL_ROW_25_182
*1333 TAP_TAPCELL_ROW_25_183
*1334 TAP_TAPCELL_ROW_25_184
*1335 TAP_TAPCELL_ROW_25_185
*1336 TAP_TAPCELL_ROW_26_186
*1337 TAP_TAPCELL_ROW_26_187
*1338 TAP_TAPCELL_ROW_26_188
*1339 TAP_TAPCELL_ROW_26_189
*1340 TAP_TAPCELL_ROW_27_190
*1341 TAP_TAPCELL_ROW_27_191
*1342 TAP_TAPCELL_ROW_27_192
*1343 TAP_TAPCELL_ROW_27_193
*1344 TAP_TAPCELL_ROW_28_194
*1345 TAP_TAPCELL_ROW_28_195
*1346 TAP_TAPCELL_ROW_28_196
*1347 TAP_TAPCELL_ROW_28_197
*1348 TAP_TAPCELL_ROW_29_198
*1349 TAP_TAPCELL_ROW_29_199
*1350 TAP_TAPCELL_ROW_29_200
*1351 TAP_TAPCELL_ROW_29_201
*1352 TAP_TAPCELL_ROW_2_90
*1353 TAP_TAPCELL_ROW_2_91
*1354 TAP_TAPCELL_ROW_2_92
*1355 TAP_TAPCELL_ROW_2_93
*1356 TAP_TAPCELL_ROW_30_202
*1357 TAP_TAPCELL_ROW_30_203
*1358 TAP_TAPCELL_ROW_30_204
*1359 TAP_TAPCELL_ROW_30_205
*1360 TAP_TAPCELL_ROW_31_206
*1361 TAP_TAPCELL_ROW_31_207
*1362 TAP_TAPCELL_ROW_31_208
*1363 TAP_TAPCELL_ROW_31_209
*1364 TAP_TAPCELL_ROW_32_210
*1365 TAP_TAPCELL_ROW_32_211
*1366 TAP_TAPCELL_ROW_32_212
*1367 TAP_TAPCELL_ROW_32_213
*1368 TAP_TAPCELL_ROW_33_214
*1369 TAP_TAPCELL_ROW_33_215
*1370 TAP_TAPCELL_ROW_33_216
*1371 TAP_TAPCELL_ROW_33_217
*1372 TAP_TAPCELL_ROW_34_218
*1373 TAP_TAPCELL_ROW_34_219
*1374 TAP_TAPCELL_ROW_34_220
*1375 TAP_TAPCELL_ROW_34_221
*1376 TAP_TAPCELL_ROW_35_222
*1377 TAP_TAPCELL_ROW_35_223
*1378 TAP_TAPCELL_ROW_35_224
*1379 TAP_TAPCELL_ROW_35_225
*1380 TAP_TAPCELL_ROW_36_226
*1381 TAP_TAPCELL_ROW_36_227
*1382 TAP_TAPCELL_ROW_36_228
*1383 TAP_TAPCELL_ROW_36_229
*1384 TAP_TAPCELL_ROW_37_230
*1385 TAP_TAPCELL_ROW_37_231
*1386 TAP_TAPCELL_ROW_37_232
*1387 TAP_TAPCELL_ROW_37_233
*1388 TAP_TAPCELL_ROW_38_234
*1389 TAP_TAPCELL_ROW_38_235
*1390 TAP_TAPCELL_ROW_38_236
*1391 TAP_TAPCELL_ROW_38_237
*1392 TAP_TAPCELL_ROW_38_238
*1393 TAP_TAPCELL_ROW_38_239
*1394 TAP_TAPCELL_ROW_38_240
*1395 TAP_TAPCELL_ROW_38_241
*1396 TAP_TAPCELL_ROW_3_94
*1397 TAP_TAPCELL_ROW_3_95
*1398 TAP_TAPCELL_ROW_3_96
*1399 TAP_TAPCELL_ROW_3_97
*1400 TAP_TAPCELL_ROW_4_100
*1401 TAP_TAPCELL_ROW_4_101
*1402 TAP_TAPCELL_ROW_4_98
*1403 TAP_TAPCELL_ROW_4_99
*1404 TAP_TAPCELL_ROW_5_102
*1405 TAP_TAPCELL_ROW_5_103
*1406 TAP_TAPCELL_ROW_5_104
*1407 TAP_TAPCELL_ROW_5_105
*1408 TAP_TAPCELL_ROW_6_106
*1409 TAP_TAPCELL_ROW_6_107
*1410 TAP_TAPCELL_ROW_6_108
*1411 TAP_TAPCELL_ROW_6_109
*1412 TAP_TAPCELL_ROW_7_110
*1413 TAP_TAPCELL_ROW_7_111
*1414 TAP_TAPCELL_ROW_7_112
*1415 TAP_TAPCELL_ROW_7_113
*1416 TAP_TAPCELL_ROW_8_114
*1417 TAP_TAPCELL_ROW_8_115
*1418 TAP_TAPCELL_ROW_8_116
*1419 TAP_TAPCELL_ROW_8_117
*1420 TAP_TAPCELL_ROW_9_118
*1421 TAP_TAPCELL_ROW_9_119
*1422 TAP_TAPCELL_ROW_9_120
*1423 TAP_TAPCELL_ROW_9_121
*1424 _254_
*1425 _255_
*1426 _256_
*1427 _257_
*1428 _258_
*1429 _259_
*1430 _260_
*1431 _261_
*1432 _262_
*1433 _263_
*1434 _264_
*1435 _265_
*1436 _266_
*1437 _267_
*1438 _268_
*1439 _269_
*1440 _270_
*1441 _271_
*1442 _272_
*1443 _273_
*1444 _274_
*1445 _275_
*1446 _276_
*1447 _277_
*1448 _278_
*1449 _279_
*1450 _280_
*1451 _281_
*1452 _282_
*1453 _283_
*1454 _284_
*1455 _285_
*1456 _286_
*1457 _287_
*1458 _288_
*1459 _289_
*1460 _290_
*1461 _291_
*1462 _292_
*1463 _293_
*1464 _294_
*1465 _295_
*1466 _296_
*1467 _297_
*1468 _298_
*1469 _299_
*1470 _300_
*1471 _301_
*1472 _302_
*1473 _303_
*1474 _304_
*1475 _305_
*1476 _306_
*1477 _307_
*1478 _308_
*1479 _309_
*1480 _310_
*1481 _311_
*1482 _312_
*1483 _313_
*1484 _314_
*1485 _315_
*1486 _316_
*1487 _317_
*1488 _318_
*1489 _319_
*1490 _320_
*1491 _321_
*1492 _322_
*1493 _323_
*1494 _324_
*1495 _325_
*1496 _326_
*1497 _327_
*1498 _328_
*1499 _329_
*1500 _330_
*1501 _331_
*1502 _332_
*1503 _333_
*1504 _334_
*1505 _335_
*1506 _336_
*1507 _337_
*1508 _338_
*1509 _339_
*1510 _340_
*1511 _341_
*1512 _342_
*1513 _343_
*1514 _344_
*1515 _345_
*1516 _346_
*1517 _347_
*1518 _348_
*1519 _349_
*1520 _350_
*1521 _351_
*1522 _352_
*1523 _353_
*1524 _354_
*1525 _355_
*1526 _356_
*1527 _357_
*1528 _358_
*1529 _359_
*1530 _360_
*1531 _361_
*1532 _362_
*1533 _363_
*1534 _364_
*1535 _365_
*1536 _366_
*1537 _367_
*1538 _368_
*1539 _369_
*1540 _370_
*1541 _371_
*1542 _372_
*1543 _373_
*1544 _374_
*1545 _375_
*1546 _376_
*1547 _377_
*1548 _378_
*1549 _379_
*1550 _380_
*1551 _381_
*1552 _382_
*1553 _383_
*1554 _384_
*1555 _385_
*1556 _386_
*1557 _387_
*1558 _388_
*1559 _389_
*1560 _390_
*1561 _391_
*1562 _392_
*1563 _393_
*1564 _394_
*1565 _395_
*1566 _396_
*1567 _397_
*1568 _398_
*1569 _399_
*1570 _400_
*1571 _401_
*1572 _402_
*1573 _403_
*1574 _404_
*1575 _405_
*1576 _406_
*1577 _407_
*1578 _408_
*1579 _409_
*1580 _410_
*1581 _411_
*1582 _412_
*1583 _413_
*1584 _414_
*1585 _415_
*1586 _416_
*1587 _417_
*1588 _418_
*1589 _419_
*1590 _420_
*1591 _421_
*1592 _422_
*1593 _423_
*1594 _424_
*1595 _425_
*1596 _426_
*1597 _427_
*1598 _428_
*1599 _429_
*1600 _430_
*1601 _431_
*1602 _432_
*1603 _433_
*1604 _434_
*1605 _435_
*1606 _436_
*1607 _437_
*1608 _438_
*1609 _439_
*1610 _440_
*1611 _441_
*1612 _442_
*1613 _443_
*1614 _444_
*1615 _445_
*1616 _446_
*1617 _447_
*1618 _448_
*1619 _449_
*1620 _450_
*1621 _451_
*1622 _452_
*1623 _453_
*1624 _454_
*1625 _455_
*1626 _456_
*1627 _457_
*1628 _458_
*1629 _459_
*1630 _460_
*1631 _461_
*1632 _462_
*1633 _463_
*1634 _464_
*1635 _465_
*1636 _466_
*1637 _467_
*1638 _468_
*1639 _469_
*1640 _470_
*1641 _471_
*1642 _472_
*1643 _473_
*1644 _474_
*1645 _475_
*1646 _476_
*1647 _477_
*1648 _478_
*1649 _479_
*1650 _480_
*1651 _481_
*1652 _482_
*1653 _483_
*1654 _484_
*1655 _485_
*1656 _486_
*1657 _487_
*1658 _488_
*1659 _489_
*1660 _490_
*1661 _491_
*1662 _492_
*1663 _493_
*1664 _494_
*1665 _495_
*1666 _496_
*1667 _497_
*1668 _498_
*1669 _499_
*1670 _500_
*1671 _501_
*1672 _502_
*1673 _503_
*1674 _504_
*1675 _505_
*1676 _506_
*1677 _507_
*1678 _508_
*1679 _509_
*1680 _510_
*1681 _511_
*1682 _512_
*1683 _513_
*1684 _514_
*1685 _515_
*1686 _516_
*1687 _517_
*1688 _518_
*1689 _519_
*1690 _520_
*1691 _521_
*1692 _522_
*1693 _523_
*1694 _524_
*1695 _525_
*1696 _526_
*1697 _527_
*1698 _528_
*1699 _529_
*1700 _530_
*1701 _531_
*1702 _532_
*1703 _533_
*1704 _534_
*1705 _535_
*1706 _536_
*1707 _537_
*1708 _538_
*1709 _539_
*1710 _540_
*1711 _541_
*1712 _542_
*1713 _543_
*1714 _544_
*1715 _545_
*1716 _546_
*1717 _547_
*1718 _548_
*1719 _549_
*1720 _550_
*1721 _551_
*1722 _552_
*1723 _553_
*1724 _554_
*1725 _555_
*1726 _556_
*1727 _557_
*1728 _558_
*1729 _559_
*1730 _560_
*1731 _561_
*1732 _562_
*1733 _563_
*1734 _564_
*1735 _565_
*1736 _566_
*1737 _567_
*1738 _568_
*1739 _569_
*1740 _570_