* NGSPICE file created from Register_file.ext - technology: sky130A

* Black-box entry subcircuit for sky130_fd_sc_hd__mux2_1 abstract view
.subckt sky130_fd_sc_hd__mux2_1 A0 A1 S VGND VNB VPB VPWR X
.ends

* Black-box entry subcircuit for sky130_fd_sc_hd__fill_2 abstract view
.subckt sky130_fd_sc_hd__fill_2 VGND VNB VPB VPWR
.ends

* Black-box entry subcircuit for sky130_fd_sc_hd__decap_3 abstract view
.subckt sky130_fd_sc_hd__decap_3 VGND VNB VPB VPWR
.ends

* Black-box entry subcircuit for sky130_fd_sc_hd__and2_1 abstract view
.subckt sky130_fd_sc_hd__and2_1 A B VGND VNB VPB VPWR X
.ends

* Black-box entry subcircuit for sky130_fd_sc_hd__decap_8 abstract view
.subckt sky130_fd_sc_hd__decap_8 VGND VNB VPB VPWR
.ends

* Black-box entry subcircuit for sky130_fd_sc_hd__tapvpwrvgnd_1 abstract view
.subckt sky130_fd_sc_hd__tapvpwrvgnd_1 VGND VPWR
.ends

* Black-box entry subcircuit for sky130_fd_sc_hd__decap_4 abstract view
.subckt sky130_fd_sc_hd__decap_4 VGND VNB VPB VPWR
.ends

* Black-box entry subcircuit for sky130_fd_sc_hd__mux4_1 abstract view
.subckt sky130_fd_sc_hd__mux4_1 A0 A1 A2 A3 S0 S1 VGND VNB VPB VPWR X
.ends

* Black-box entry subcircuit for sky130_fd_sc_hd__o21a_1 abstract view
.subckt sky130_fd_sc_hd__o21a_1 A1 A2 B1 VGND VNB VPB VPWR X
.ends

* Black-box entry subcircuit for sky130_fd_sc_hd__fill_1 abstract view
.subckt sky130_fd_sc_hd__fill_1 VGND VNB VPB VPWR
.ends

* Black-box entry subcircuit for sky130_ef_sc_hd__decap_12 abstract view
.subckt sky130_ef_sc_hd__decap_12 VPWR VGND VPB VNB
.ends

* Black-box entry subcircuit for sky130_fd_sc_hd__decap_6 abstract view
.subckt sky130_fd_sc_hd__decap_6 VGND VNB VPB VPWR
.ends

* Black-box entry subcircuit for sky130_fd_sc_hd__dfxtp_1 abstract view
.subckt sky130_fd_sc_hd__dfxtp_1 CLK D VGND VNB VPB VPWR Q
.ends

* Black-box entry subcircuit for sky130_fd_sc_hd__dlygate4sd3_1 abstract view
.subckt sky130_fd_sc_hd__dlygate4sd3_1 A VGND VNB VPB VPWR X
.ends

* Black-box entry subcircuit for sky130_fd_sc_hd__buf_2 abstract view
.subckt sky130_fd_sc_hd__buf_2 A VGND VNB VPB VPWR X
.ends

* Black-box entry subcircuit for sky130_fd_sc_hd__clkbuf_16 abstract view
.subckt sky130_fd_sc_hd__clkbuf_16 A VGND VNB VPB VPWR X
.ends

* Black-box entry subcircuit for sky130_fd_sc_hd__a22o_1 abstract view
.subckt sky130_fd_sc_hd__a22o_1 A1 A2 B1 B2 VGND VNB VPB VPWR X
.ends

* Black-box entry subcircuit for sky130_fd_sc_hd__and2b_1 abstract view
.subckt sky130_fd_sc_hd__and2b_1 A_N B VGND VNB VPB VPWR X
.ends

* Black-box entry subcircuit for sky130_fd_sc_hd__and4b_1 abstract view
.subckt sky130_fd_sc_hd__and4b_1 A_N B C D VGND VNB VPB VPWR X
.ends

* Black-box entry subcircuit for sky130_fd_sc_hd__clkbuf_4 abstract view
.subckt sky130_fd_sc_hd__clkbuf_4 A VGND VNB VPB VPWR X
.ends

* Black-box entry subcircuit for sky130_fd_sc_hd__clkbuf_2 abstract view
.subckt sky130_fd_sc_hd__clkbuf_2 A VGND VNB VPB VPWR X
.ends

* Black-box entry subcircuit for sky130_fd_sc_hd__clkinv_2 abstract view
.subckt sky130_fd_sc_hd__clkinv_2 A VGND VNB VPB VPWR Y
.ends

* Black-box entry subcircuit for sky130_fd_sc_hd__or3_1 abstract view
.subckt sky130_fd_sc_hd__or3_1 A B C VGND VNB VPB VPWR X
.ends

* Black-box entry subcircuit for sky130_fd_sc_hd__buf_4 abstract view
.subckt sky130_fd_sc_hd__buf_4 A VGND VNB VPB VPWR X
.ends

* Black-box entry subcircuit for sky130_fd_sc_hd__nor2_1 abstract view
.subckt sky130_fd_sc_hd__nor2_1 A B VGND VNB VPB VPWR Y
.ends

* Black-box entry subcircuit for sky130_fd_sc_hd__bufinv_16 abstract view
.subckt sky130_fd_sc_hd__bufinv_16 A VGND VNB VPB VPWR Y
.ends

* Black-box entry subcircuit for sky130_fd_sc_hd__clkinvlp_4 abstract view
.subckt sky130_fd_sc_hd__clkinvlp_4 A VGND VNB VPB VPWR Y
.ends

* Black-box entry subcircuit for sky130_fd_sc_hd__buf_1 abstract view
.subckt sky130_fd_sc_hd__buf_1 A VGND VNB VPB VPWR X
.ends

* Black-box entry subcircuit for sky130_fd_sc_hd__dlymetal6s2s_1 abstract view
.subckt sky130_fd_sc_hd__dlymetal6s2s_1 A VGND VNB VPB VPWR X
.ends

* Black-box entry subcircuit for sky130_fd_sc_hd__clkbuf_1 abstract view
.subckt sky130_fd_sc_hd__clkbuf_1 A VGND VNB VPB VPWR X
.ends

* Black-box entry subcircuit for sky130_fd_sc_hd__and4bb_1 abstract view
.subckt sky130_fd_sc_hd__and4bb_1 A_N B_N C D VGND VNB VPB VPWR X
.ends

* Black-box entry subcircuit for sky130_fd_sc_hd__and4_1 abstract view
.subckt sky130_fd_sc_hd__and4_1 A B C D VGND VNB VPB VPWR X
.ends

.subckt Register_file A1[0] A1[1] A1[2] A2[0] A2[1] A2[2] A3[0] A3[1] A3[2] RD1[0]
+ RD1[10] RD1[11] RD1[12] RD1[13] RD1[14] RD1[15] RD1[1] RD1[2] RD1[3] RD1[4] RD1[5]
+ RD1[6] RD1[7] RD1[8] RD1[9] RD2[0] RD2[10] RD2[11] RD2[12] RD2[13] RD2[14] RD2[15]
+ RD2[1] RD2[2] RD2[3] RD2[4] RD2[5] RD2[6] RD2[7] RD2[8] RD2[9] RegWrite VGND VPWR
+ WD3[0] WD3[10] WD3[11] WD3[12] WD3[13] WD3[14] WD3[15] WD3[1] WD3[2] WD3[3] WD3[4]
+ WD3[5] WD3[6] WD3[7] WD3[8] WD3[9] clk
X_501_ net133 net13 net64 VGND VGND VPWR VPWR _067_ sky130_fd_sc_hd__mux2_1
XFILLER_13_166 VGND VGND VPWR VPWR sky130_fd_sc_hd__fill_2
XFILLER_13_122 VGND VGND VPWR VPWR sky130_fd_sc_hd__decap_3
X_432_ net142 net12 net71 VGND VGND VPWR VPWR _002_ sky130_fd_sc_hd__mux2_1
X_294_ reg_array\[1\]\[7\] net83 VGND VGND VPWR VPWR _145_ sky130_fd_sc_hd__and2_1
XFILLER_3_89 VGND VGND VPWR VPWR sky130_fd_sc_hd__decap_8
X_363_ reg_array\[2\]\[4\] reg_array\[3\]\[4\] net91 VGND VGND VPWR VPWR _201_ sky130_fd_sc_hd__mux2_1
XTAP_TAPCELL_ROW_37_231 VGND VPWR sky130_fd_sc_hd__tapvpwrvgnd_1
XTAP_TAPCELL_ROW_6_107 VGND VPWR sky130_fd_sc_hd__tapvpwrvgnd_1
XFILLER_37_51 VGND VGND VPWR VPWR sky130_fd_sc_hd__decap_4
X_346_ reg_array\[4\]\[1\] reg_array\[5\]\[1\] reg_array\[6\]\[1\] reg_array\[7\]\[1\]
+ net91 net87 VGND VGND VPWR VPWR _187_ sky130_fd_sc_hd__mux4_1
XTAP_TAPCELL_ROW_20_164 VGND VPWR sky130_fd_sc_hd__tapvpwrvgnd_1
X_415_ _240_ _242_ net75 VGND VGND VPWR VPWR net48 sky130_fd_sc_hd__o21a_1
XFILLER_24_206 VGND VGND VPWR VPWR sky130_fd_sc_hd__fill_2
X_277_ _129_ _131_ net81 VGND VGND VPWR VPWR net36 sky130_fd_sc_hd__o21a_1
XFILLER_5_195 VGND VGND VPWR VPWR sky130_fd_sc_hd__fill_1
X_329_ reg_array\[1\]\[14\] net83 VGND VGND VPWR VPWR _173_ sky130_fd_sc_hd__and2_1
XFILLER_2_176 VGND VGND VPWR VPWR sky130_fd_sc_hd__decap_8
XPHY_EDGE_ROW_8_Left_47 VGND VGND VPWR VPWR sky130_fd_sc_hd__decap_3
XFILLER_38_139 VGND VGND VPWR VPWR sky130_fd_sc_hd__fill_1
XFILLER_34_85 VPWR VGND VPWR VGND sky130_ef_sc_hd__decap_12
XFILLER_22_7 VPWR VGND VPWR VGND sky130_ef_sc_hd__decap_12
XFILLER_37_161 VGND VGND VPWR VPWR sky130_fd_sc_hd__decap_6
XFILLER_29_106 VGND VGND VPWR VPWR sky130_fd_sc_hd__decap_6
X_594_ clknet_3_2__leaf_clk _046_ VGND VGND VPWR VPWR reg_array\[1\]\[6\] sky130_fd_sc_hd__dfxtp_1
Xhold85 reg_array\[3\]\[14\] VGND VGND VPWR VPWR net185 sky130_fd_sc_hd__dlygate4sd3_1
Xhold30 reg_array\[5\]\[14\] VGND VGND VPWR VPWR net130 sky130_fd_sc_hd__dlygate4sd3_1
Xhold63 reg_array\[7\]\[3\] VGND VGND VPWR VPWR net163 sky130_fd_sc_hd__dlygate4sd3_1
Xhold96 reg_array\[5\]\[2\] VGND VGND VPWR VPWR net196 sky130_fd_sc_hd__dlygate4sd3_1
Xhold74 reg_array\[6\]\[10\] VGND VGND VPWR VPWR net174 sky130_fd_sc_hd__dlygate4sd3_1
XFILLER_4_205 VGND VGND VPWR VPWR sky130_fd_sc_hd__fill_2
Xhold41 reg_array\[6\]\[4\] VGND VGND VPWR VPWR net141 sky130_fd_sc_hd__dlygate4sd3_1
Xhold52 reg_array\[2\]\[5\] VGND VGND VPWR VPWR net152 sky130_fd_sc_hd__dlygate4sd3_1
XFILLER_34_197 VGND VGND VPWR VPWR sky130_fd_sc_hd__decap_8
XFILLER_19_161 VGND VGND VPWR VPWR sky130_fd_sc_hd__decap_6
XFILLER_13_3 VPWR VGND VPWR VGND sky130_ef_sc_hd__decap_12
XFILLER_31_53 VGND VGND VPWR VPWR sky130_fd_sc_hd__decap_3
Xoutput31 net31 VGND VGND VPWR VPWR RD1[13] sky130_fd_sc_hd__buf_2
Xoutput42 net42 VGND VGND VPWR VPWR RD1[9] sky130_fd_sc_hd__buf_2
XFILLER_31_167 VGND VGND VPWR VPWR sky130_fd_sc_hd__fill_1
X_646_ clknet_3_4__leaf_clk _098_ VGND VGND VPWR VPWR reg_array\[7\]\[10\] sky130_fd_sc_hd__dfxtp_1
Xoutput53 net53 VGND VGND VPWR VPWR RD2[4] sky130_fd_sc_hd__buf_2
X_577_ clknet_3_0__leaf_clk _029_ VGND VGND VPWR VPWR reg_array\[2\]\[5\] sky130_fd_sc_hd__dfxtp_1
XPHY_EDGE_ROW_37_Left_76 VGND VGND VPWR VPWR sky130_fd_sc_hd__decap_3
X_431_ net128 net26 net71 VGND VGND VPWR VPWR _001_ sky130_fd_sc_hd__mux2_1
Xclkbuf_3_6__f_clk clknet_0_clk VGND VGND VPWR VPWR clknet_3_6__leaf_clk sky130_fd_sc_hd__clkbuf_16
X_500_ net174 net12 net64 VGND VGND VPWR VPWR _066_ sky130_fd_sc_hd__mux2_1
X_362_ reg_array\[1\]\[4\] net77 VGND VGND VPWR VPWR _200_ sky130_fd_sc_hd__and2_1
XFILLER_3_57 VGND VGND VPWR VPWR sky130_fd_sc_hd__decap_8
X_293_ reg_array\[4\]\[7\] reg_array\[5\]\[7\] reg_array\[6\]\[7\] reg_array\[7\]\[7\]
+ net97 net96 VGND VGND VPWR VPWR _144_ sky130_fd_sc_hd__mux4_1
X_629_ clknet_3_2__leaf_clk _081_ VGND VGND VPWR VPWR reg_array\[5\]\[9\] sky130_fd_sc_hd__dfxtp_1
XTAP_TAPCELL_ROW_14_140 VGND VPWR sky130_fd_sc_hd__tapvpwrvgnd_1
XTAP_TAPCELL_ROW_6_108 VGND VPWR sky130_fd_sc_hd__tapvpwrvgnd_1
XTAP_TAPCELL_ROW_37_232 VGND VPWR sky130_fd_sc_hd__tapvpwrvgnd_1
XTAP_TAPCELL_ROW_20_165 VGND VPWR sky130_fd_sc_hd__tapvpwrvgnd_1
XFILLER_10_137 VGND VGND VPWR VPWR sky130_fd_sc_hd__decap_3
X_414_ net86 _239_ _241_ net74 VGND VGND VPWR VPWR _242_ sky130_fd_sc_hd__a22o_1
X_276_ net93 _128_ _130_ net79 VGND VGND VPWR VPWR _131_ sky130_fd_sc_hd__a22o_1
X_345_ _183_ _186_ net75 VGND VGND VPWR VPWR net43 sky130_fd_sc_hd__o21a_1
XPHY_EDGE_ROW_21_Right_21 VGND VGND VPWR VPWR sky130_fd_sc_hd__decap_3
XPHY_EDGE_ROW_12_Right_12 VGND VGND VPWR VPWR sky130_fd_sc_hd__decap_3
XPHY_EDGE_ROW_30_Right_30 VGND VGND VPWR VPWR sky130_fd_sc_hd__decap_3
X_328_ reg_array\[4\]\[14\] reg_array\[5\]\[14\] reg_array\[6\]\[14\] reg_array\[7\]\[14\]
+ net99 net95 VGND VGND VPWR VPWR _172_ sky130_fd_sc_hd__mux4_1
X_259_ reg_array\[4\]\[0\] reg_array\[5\]\[0\] net99 VGND VGND VPWR VPWR _117_ sky130_fd_sc_hd__mux2_1
XPHY_EDGE_ROW_24_Left_63 VGND VGND VPWR VPWR sky130_fd_sc_hd__decap_3
XFILLER_34_97 VGND VGND VPWR VPWR sky130_fd_sc_hd__decap_6
Xhold97 reg_array\[3\]\[8\] VGND VGND VPWR VPWR net197 sky130_fd_sc_hd__dlygate4sd3_1
Xhold64 reg_array\[7\]\[1\] VGND VGND VPWR VPWR net164 sky130_fd_sc_hd__dlygate4sd3_1
Xhold86 reg_array\[7\]\[12\] VGND VGND VPWR VPWR net186 sky130_fd_sc_hd__dlygate4sd3_1
Xhold53 reg_array\[4\]\[15\] VGND VGND VPWR VPWR net153 sky130_fd_sc_hd__dlygate4sd3_1
Xhold75 reg_array\[6\]\[7\] VGND VGND VPWR VPWR net175 sky130_fd_sc_hd__dlygate4sd3_1
Xhold42 reg_array\[4\]\[10\] VGND VGND VPWR VPWR net142 sky130_fd_sc_hd__dlygate4sd3_1
Xhold20 reg_array\[2\]\[7\] VGND VGND VPWR VPWR net120 sky130_fd_sc_hd__dlygate4sd3_1
Xhold31 reg_array\[7\]\[0\] VGND VGND VPWR VPWR net131 sky130_fd_sc_hd__dlygate4sd3_1
XFILLER_4_228 VGND VGND VPWR VPWR sky130_fd_sc_hd__fill_1
XFILLER_34_110 VPWR VGND VPWR VGND sky130_ef_sc_hd__decap_12
X_593_ clknet_3_0__leaf_clk _045_ VGND VGND VPWR VPWR reg_array\[1\]\[5\] sky130_fd_sc_hd__dfxtp_1
XPHY_EDGE_ROW_11_Left_50 VGND VGND VPWR VPWR sky130_fd_sc_hd__decap_3
XPHY_EDGE_ROW_6_Right_6 VGND VGND VPWR VPWR sky130_fd_sc_hd__decap_3
XFILLER_31_113 VGND VGND VPWR VPWR sky130_fd_sc_hd__decap_4
X_645_ clknet_3_2__leaf_clk _097_ VGND VGND VPWR VPWR reg_array\[7\]\[9\] sky130_fd_sc_hd__dfxtp_1
Xoutput32 net32 VGND VGND VPWR VPWR RD1[14] sky130_fd_sc_hd__buf_2
Xoutput54 net54 VGND VGND VPWR VPWR RD2[5] sky130_fd_sc_hd__buf_2
X_576_ clknet_3_4__leaf_clk _028_ VGND VGND VPWR VPWR reg_array\[2\]\[4\] sky130_fd_sc_hd__dfxtp_1
Xoutput43 net43 VGND VGND VPWR VPWR RD2[0] sky130_fd_sc_hd__buf_2
X_430_ net179 net25 net72 VGND VGND VPWR VPWR _000_ sky130_fd_sc_hd__mux2_1
X_292_ _141_ _143_ net81 VGND VGND VPWR VPWR net39 sky130_fd_sc_hd__o21a_1
XTAP_TAPCELL_ROW_23_174 VGND VPWR sky130_fd_sc_hd__tapvpwrvgnd_1
X_361_ reg_array\[4\]\[4\] reg_array\[5\]\[4\] reg_array\[6\]\[4\] reg_array\[7\]\[4\]
+ net91 net87 VGND VGND VPWR VPWR _199_ sky130_fd_sc_hd__mux4_1
X_628_ clknet_3_7__leaf_clk _080_ VGND VGND VPWR VPWR reg_array\[5\]\[8\] sky130_fd_sc_hd__dfxtp_1
X_559_ clknet_3_0__leaf_clk _011_ VGND VGND VPWR VPWR reg_array\[3\]\[3\] sky130_fd_sc_hd__dfxtp_1
XTAP_TAPCELL_ROW_14_141 VGND VPWR sky130_fd_sc_hd__tapvpwrvgnd_1
XFILLER_12_190 VGND VGND VPWR VPWR sky130_fd_sc_hd__decap_6
XTAP_TAPCELL_ROW_6_109 VGND VPWR sky130_fd_sc_hd__tapvpwrvgnd_1
XTAP_TAPCELL_ROW_37_233 VGND VPWR sky130_fd_sc_hd__tapvpwrvgnd_1
X_275_ reg_array\[2\]\[3\] reg_array\[3\]\[3\] net97 VGND VGND VPWR VPWR _130_ sky130_fd_sc_hd__mux2_1
X_413_ reg_array\[2\]\[14\] reg_array\[3\]\[14\] net91 VGND VGND VPWR VPWR _241_ sky130_fd_sc_hd__mux2_1
X_344_ net86 _182_ net74 _185_ VGND VGND VPWR VPWR _186_ sky130_fd_sc_hd__a22o_1
XTAP_TAPCELL_ROW_31_206 VGND VPWR sky130_fd_sc_hd__tapvpwrvgnd_1
XFILLER_23_55 VGND VGND VPWR VPWR sky130_fd_sc_hd__fill_1
XFILLER_0_15 VGND VGND VPWR VPWR sky130_fd_sc_hd__decap_8
XFILLER_3_3 VPWR VGND VPWR VGND sky130_ef_sc_hd__decap_12
XFILLER_36_3 VPWR VGND VPWR VGND sky130_ef_sc_hd__decap_12
X_327_ _169_ _171_ net82 VGND VGND VPWR VPWR net31 sky130_fd_sc_hd__o21a_1
XTAP_TAPCELL_ROW_0_80 VGND VPWR sky130_fd_sc_hd__tapvpwrvgnd_1
X_258_ net95 net93 VGND VGND VPWR VPWR _116_ sky130_fd_sc_hd__and2b_1
XFILLER_9_57 VGND VGND VPWR VPWR sky130_fd_sc_hd__decap_3
XFILLER_38_119 VPWR VGND VPWR VGND sky130_ef_sc_hd__decap_12
XFILLER_20_89 VGND VGND VPWR VPWR sky130_fd_sc_hd__decap_4
Xhold21 reg_array\[6\]\[8\] VGND VGND VPWR VPWR net121 sky130_fd_sc_hd__dlygate4sd3_1
Xhold98 reg_array\[3\]\[12\] VGND VGND VPWR VPWR net198 sky130_fd_sc_hd__dlygate4sd3_1
XFILLER_29_87 VGND VGND VPWR VPWR sky130_fd_sc_hd__fill_2
XFILLER_20_6 VGND VGND VPWR VPWR sky130_fd_sc_hd__decap_4
Xhold43 reg_array\[4\]\[14\] VGND VGND VPWR VPWR net143 sky130_fd_sc_hd__dlygate4sd3_1
Xhold65 reg_array\[7\]\[14\] VGND VGND VPWR VPWR net165 sky130_fd_sc_hd__dlygate4sd3_1
Xhold32 reg_array\[5\]\[7\] VGND VGND VPWR VPWR net132 sky130_fd_sc_hd__dlygate4sd3_1
Xhold54 reg_array\[4\]\[7\] VGND VGND VPWR VPWR net154 sky130_fd_sc_hd__dlygate4sd3_1
X_592_ clknet_3_4__leaf_clk _044_ VGND VGND VPWR VPWR reg_array\[1\]\[4\] sky130_fd_sc_hd__dfxtp_1
Xhold87 reg_array\[3\]\[5\] VGND VGND VPWR VPWR net187 sky130_fd_sc_hd__dlygate4sd3_1
Xhold10 reg_array\[1\]\[2\] VGND VGND VPWR VPWR net110 sky130_fd_sc_hd__dlygate4sd3_1
Xhold76 reg_array\[4\]\[0\] VGND VGND VPWR VPWR net176 sky130_fd_sc_hd__dlygate4sd3_1
XFILLER_34_122 VGND VGND VPWR VPWR sky130_fd_sc_hd__decap_8
XFILLER_19_185 VGND VGND VPWR VPWR sky130_fd_sc_hd__fill_2
XFILLER_19_141 VGND VGND VPWR VPWR sky130_fd_sc_hd__decap_3
X_644_ clknet_3_6__leaf_clk _096_ VGND VGND VPWR VPWR reg_array\[7\]\[8\] sky130_fd_sc_hd__dfxtp_1
Xoutput55 net55 VGND VGND VPWR VPWR RD2[6] sky130_fd_sc_hd__buf_2
XFILLER_25_177 VGND VGND VPWR VPWR sky130_fd_sc_hd__decap_6
Xoutput33 net33 VGND VGND VPWR VPWR RD1[15] sky130_fd_sc_hd__buf_2
X_575_ clknet_3_2__leaf_clk _027_ VGND VGND VPWR VPWR reg_array\[2\]\[3\] sky130_fd_sc_hd__dfxtp_1
XFILLER_16_111 VGND VGND VPWR VPWR sky130_fd_sc_hd__fill_2
Xoutput44 net44 VGND VGND VPWR VPWR RD2[10] sky130_fd_sc_hd__buf_2
XFILLER_0_221 VGND VGND VPWR VPWR sky130_fd_sc_hd__decap_3
XTAP_TAPCELL_ROW_17_150 VGND VPWR sky130_fd_sc_hd__tapvpwrvgnd_1
X_291_ net94 _140_ _142_ net80 VGND VGND VPWR VPWR _143_ sky130_fd_sc_hd__a22o_1
XTAP_TAPCELL_ROW_23_175 VGND VPWR sky130_fd_sc_hd__tapvpwrvgnd_1
X_360_ _196_ _198_ net75 VGND VGND VPWR VPWR net52 sky130_fd_sc_hd__o21a_1
XTAP_TAPCELL_ROW_9_118 VGND VPWR sky130_fd_sc_hd__tapvpwrvgnd_1
X_489_ net7 net9 net8 net10 VGND VGND VPWR VPWR _251_ sky130_fd_sc_hd__and4b_1
X_627_ clknet_3_1__leaf_clk _079_ VGND VGND VPWR VPWR reg_array\[5\]\[7\] sky130_fd_sc_hd__dfxtp_1
XFILLER_3_15 VPWR VGND VPWR VGND sky130_ef_sc_hd__decap_12
X_558_ clknet_3_1__leaf_clk _010_ VGND VGND VPWR VPWR reg_array\[3\]\[2\] sky130_fd_sc_hd__dfxtp_1
XFILLER_8_195 VGND VGND VPWR VPWR sky130_fd_sc_hd__fill_1
XFILLER_10_117 VGND VGND VPWR VPWR sky130_fd_sc_hd__decap_4
X_412_ reg_array\[1\]\[14\] net77 VGND VGND VPWR VPWR _240_ sky130_fd_sc_hd__and2_1
XFILLER_18_228 VGND VGND VPWR VPWR sky130_fd_sc_hd__fill_1
X_274_ reg_array\[1\]\[3\] net83 VGND VGND VPWR VPWR _129_ sky130_fd_sc_hd__and2_1
X_343_ reg_array\[2\]\[0\] reg_array\[3\]\[0\] net91 VGND VGND VPWR VPWR _185_ sky130_fd_sc_hd__mux2_1
XFILLER_15_209 VGND VGND VPWR VPWR sky130_fd_sc_hd__decap_4
XFILLER_2_102 VPWR VGND VPWR VGND sky130_ef_sc_hd__decap_12
Xfanout90 net4 VGND VGND VPWR VPWR net90 sky130_fd_sc_hd__buf_2
X_326_ net94 _168_ _170_ net80 VGND VGND VPWR VPWR _171_ sky130_fd_sc_hd__a22o_1
XTAP_TAPCELL_ROW_31_207 VGND VPWR sky130_fd_sc_hd__tapvpwrvgnd_1
XTAP_TAPCELL_ROW_0_81 VGND VPWR sky130_fd_sc_hd__tapvpwrvgnd_1
X_257_ reg_array\[1\]\[0\] net83 VGND VGND VPWR VPWR _115_ sky130_fd_sc_hd__and2_1
XFILLER_9_36 VGND VGND VPWR VPWR sky130_fd_sc_hd__decap_4
XFILLER_18_45 VGND VGND VPWR VPWR sky130_fd_sc_hd__fill_1
XFILLER_11_201 VGND VGND VPWR VPWR sky130_fd_sc_hd__fill_1
X_309_ reg_array\[1\]\[10\] net83 VGND VGND VPWR VPWR _157_ sky130_fd_sc_hd__and2_1
Xhold22 reg_array\[1\]\[9\] VGND VGND VPWR VPWR net122 sky130_fd_sc_hd__dlygate4sd3_1
Xhold66 reg_array\[2\]\[12\] VGND VGND VPWR VPWR net166 sky130_fd_sc_hd__dlygate4sd3_1
XFILLER_29_11 VGND VGND VPWR VPWR sky130_fd_sc_hd__decap_6
XFILLER_28_197 VGND VGND VPWR VPWR sky130_fd_sc_hd__decap_6
Xhold11 reg_array\[7\]\[6\] VGND VGND VPWR VPWR net111 sky130_fd_sc_hd__dlygate4sd3_1
Xhold99 reg_array\[6\]\[13\] VGND VGND VPWR VPWR net199 sky130_fd_sc_hd__dlygate4sd3_1
Xhold88 reg_array\[4\]\[6\] VGND VGND VPWR VPWR net188 sky130_fd_sc_hd__dlygate4sd3_1
Xhold33 reg_array\[6\]\[11\] VGND VGND VPWR VPWR net133 sky130_fd_sc_hd__dlygate4sd3_1
Xhold55 reg_array\[4\]\[11\] VGND VGND VPWR VPWR net155 sky130_fd_sc_hd__dlygate4sd3_1
Xhold77 reg_array\[5\]\[11\] VGND VGND VPWR VPWR net177 sky130_fd_sc_hd__dlygate4sd3_1
X_591_ clknet_3_0__leaf_clk _043_ VGND VGND VPWR VPWR reg_array\[1\]\[3\] sky130_fd_sc_hd__dfxtp_1
Xhold44 reg_array\[2\]\[4\] VGND VGND VPWR VPWR net144 sky130_fd_sc_hd__dlygate4sd3_1
XFILLER_34_156 VPWR VGND VPWR VGND sky130_ef_sc_hd__decap_12
XFILLER_34_145 VGND VGND VPWR VPWR sky130_fd_sc_hd__fill_1
Xoutput34 net34 VGND VGND VPWR VPWR RD1[1] sky130_fd_sc_hd__buf_2
XFILLER_25_167 VGND VGND VPWR VPWR sky130_fd_sc_hd__fill_1
Xoutput45 net45 VGND VGND VPWR VPWR RD2[11] sky130_fd_sc_hd__buf_2
Xoutput56 net56 VGND VGND VPWR VPWR RD2[7] sky130_fd_sc_hd__buf_2
XFILLER_16_178 VGND VGND VPWR VPWR sky130_fd_sc_hd__fill_1
XFILLER_16_123 VGND VGND VPWR VPWR sky130_fd_sc_hd__fill_1
XFILLER_16_101 VGND VGND VPWR VPWR sky130_fd_sc_hd__decap_6
XFILLER_11_3 VGND VGND VPWR VPWR sky130_fd_sc_hd__decap_8
X_574_ clknet_3_1__leaf_clk _026_ VGND VGND VPWR VPWR reg_array\[2\]\[2\] sky130_fd_sc_hd__dfxtp_1
X_643_ clknet_3_0__leaf_clk _095_ VGND VGND VPWR VPWR reg_array\[7\]\[7\] sky130_fd_sc_hd__dfxtp_1
XFILLER_30_192 VGND VGND VPWR VPWR sky130_fd_sc_hd__decap_4
XTAP_TAPCELL_ROW_17_151 VGND VPWR sky130_fd_sc_hd__tapvpwrvgnd_1
XTAP_TAPCELL_ROW_9_119 VGND VPWR sky130_fd_sc_hd__tapvpwrvgnd_1
X_626_ clknet_3_2__leaf_clk _078_ VGND VGND VPWR VPWR reg_array\[5\]\[6\] sky130_fd_sc_hd__dfxtp_1
X_557_ clknet_3_7__leaf_clk _009_ VGND VGND VPWR VPWR reg_array\[3\]\[1\] sky130_fd_sc_hd__dfxtp_1
X_290_ reg_array\[2\]\[6\] reg_array\[3\]\[6\] net97 VGND VGND VPWR VPWR _142_ sky130_fd_sc_hd__mux2_1
XTAP_TAPCELL_ROW_23_176 VGND VPWR sky130_fd_sc_hd__tapvpwrvgnd_1
X_488_ net113 net17 net66 VGND VGND VPWR VPWR _055_ sky130_fd_sc_hd__mux2_1
XFILLER_3_27 VPWR VGND VPWR VGND sky130_ef_sc_hd__decap_12
XFILLER_9_108 VGND VGND VPWR VPWR sky130_fd_sc_hd__decap_4
XFILLER_37_99 VGND VGND VPWR VPWR sky130_fd_sc_hd__fill_2
XFILLER_37_55 VGND VGND VPWR VPWR sky130_fd_sc_hd__fill_1
X_411_ reg_array\[4\]\[14\] reg_array\[5\]\[14\] reg_array\[6\]\[14\] reg_array\[7\]\[14\]
+ net91 net87 VGND VGND VPWR VPWR _239_ sky130_fd_sc_hd__mux4_1
X_342_ net85 net87 VGND VGND VPWR VPWR _184_ sky130_fd_sc_hd__and2b_1
X_273_ reg_array\[4\]\[3\] reg_array\[5\]\[3\] reg_array\[6\]\[3\] reg_array\[7\]\[3\]
+ net97 net96 VGND VGND VPWR VPWR _128_ sky130_fd_sc_hd__mux4_1
XFILLER_5_111 VGND VGND VPWR VPWR sky130_fd_sc_hd__fill_1
X_609_ clknet_3_0__leaf_clk _061_ VGND VGND VPWR VPWR reg_array\[6\]\[5\] sky130_fd_sc_hd__dfxtp_1
XFILLER_23_221 VGND VGND VPWR VPWR sky130_fd_sc_hd__decap_3
XFILLER_2_114 VPWR VGND VPWR VGND sky130_ef_sc_hd__decap_12
X_325_ reg_array\[2\]\[13\] reg_array\[3\]\[13\] net98 VGND VGND VPWR VPWR _170_ sky130_fd_sc_hd__mux2_1
XTAP_TAPCELL_ROW_31_208 VGND VPWR sky130_fd_sc_hd__tapvpwrvgnd_1
Xfanout91 net4 VGND VGND VPWR VPWR net91 sky130_fd_sc_hd__clkbuf_4
Xfanout80 _121_ VGND VGND VPWR VPWR net80 sky130_fd_sc_hd__clkbuf_2
XTAP_TAPCELL_ROW_0_82 VGND VPWR sky130_fd_sc_hd__tapvpwrvgnd_1
X_256_ reg_array\[2\]\[0\] reg_array\[3\]\[0\] reg_array\[6\]\[0\] reg_array\[7\]\[0\]
+ net99 net93 VGND VGND VPWR VPWR _114_ sky130_fd_sc_hd__mux4_1
XFILLER_9_15 VGND VGND VPWR VPWR sky130_fd_sc_hd__decap_4
XPHY_EDGE_ROW_28_Left_67 VGND VGND VPWR VPWR sky130_fd_sc_hd__decap_3
Xclkload0 clknet_3_0__leaf_clk VGND VGND VPWR VPWR clkload0/Y sky130_fd_sc_hd__clkinv_2
X_308_ reg_array\[4\]\[10\] reg_array\[5\]\[10\] reg_array\[6\]\[10\] reg_array\[7\]\[10\]
+ net99 net95 VGND VGND VPWR VPWR _156_ sky130_fd_sc_hd__mux4_1
Xhold23 reg_array\[1\]\[12\] VGND VGND VPWR VPWR net123 sky130_fd_sc_hd__dlygate4sd3_1
Xhold89 reg_array\[5\]\[1\] VGND VGND VPWR VPWR net189 sky130_fd_sc_hd__dlygate4sd3_1
XFILLER_28_110 VGND VGND VPWR VPWR sky130_fd_sc_hd__fill_2
Xhold67 reg_array\[6\]\[6\] VGND VGND VPWR VPWR net167 sky130_fd_sc_hd__dlygate4sd3_1
Xhold12 reg_array\[6\]\[15\] VGND VGND VPWR VPWR net112 sky130_fd_sc_hd__dlygate4sd3_1
Xhold78 reg_array\[2\]\[3\] VGND VGND VPWR VPWR net178 sky130_fd_sc_hd__dlygate4sd3_1
Xhold56 reg_array\[5\]\[5\] VGND VGND VPWR VPWR net156 sky130_fd_sc_hd__dlygate4sd3_1
Xhold45 reg_array\[7\]\[4\] VGND VGND VPWR VPWR net145 sky130_fd_sc_hd__dlygate4sd3_1
X_590_ clknet_3_1__leaf_clk _042_ VGND VGND VPWR VPWR reg_array\[1\]\[2\] sky130_fd_sc_hd__dfxtp_1
Xhold34 reg_array\[6\]\[0\] VGND VGND VPWR VPWR net134 sky130_fd_sc_hd__dlygate4sd3_1
Xoutput46 net46 VGND VGND VPWR VPWR RD2[12] sky130_fd_sc_hd__buf_2
Xoutput57 net57 VGND VGND VPWR VPWR RD2[8] sky130_fd_sc_hd__buf_2
XFILLER_31_57 VGND VGND VPWR VPWR sky130_fd_sc_hd__fill_2
XFILLER_25_157 VGND VGND VPWR VPWR sky130_fd_sc_hd__fill_1
Xoutput35 net35 VGND VGND VPWR VPWR RD1[2] sky130_fd_sc_hd__buf_2
XPHY_EDGE_ROW_28_Right_28 VGND VGND VPWR VPWR sky130_fd_sc_hd__decap_3
X_642_ clknet_3_2__leaf_clk _094_ VGND VGND VPWR VPWR reg_array\[7\]\[6\] sky130_fd_sc_hd__dfxtp_1
X_573_ clknet_3_7__leaf_clk _025_ VGND VGND VPWR VPWR reg_array\[2\]\[1\] sky130_fd_sc_hd__dfxtp_1
XPHY_EDGE_ROW_19_Right_19 VGND VGND VPWR VPWR sky130_fd_sc_hd__decap_3
Xclkbuf_3_1__f_clk clknet_0_clk VGND VGND VPWR VPWR clknet_3_1__leaf_clk sky130_fd_sc_hd__clkbuf_16
XPHY_EDGE_ROW_37_Right_37 VGND VGND VPWR VPWR sky130_fd_sc_hd__decap_3
XFILLER_22_138 VGND VGND VPWR VPWR sky130_fd_sc_hd__fill_2
XTAP_TAPCELL_ROW_17_152 VGND VPWR sky130_fd_sc_hd__tapvpwrvgnd_1
XPHY_EDGE_ROW_15_Left_54 VGND VGND VPWR VPWR sky130_fd_sc_hd__decap_3
XTAP_TAPCELL_ROW_23_177 VGND VPWR sky130_fd_sc_hd__tapvpwrvgnd_1
X_625_ clknet_3_0__leaf_clk _077_ VGND VGND VPWR VPWR reg_array\[5\]\[5\] sky130_fd_sc_hd__dfxtp_1
XFILLER_3_39 VGND VGND VPWR VPWR sky130_fd_sc_hd__decap_4
X_487_ net151 net16 net65 VGND VGND VPWR VPWR _054_ sky130_fd_sc_hd__mux2_1
X_556_ clknet_3_5__leaf_clk _008_ VGND VGND VPWR VPWR reg_array\[3\]\[0\] sky130_fd_sc_hd__dfxtp_1
XFILLER_37_67 VPWR VGND VPWR VGND sky130_ef_sc_hd__decap_12
X_410_ _236_ _238_ net76 VGND VGND VPWR VPWR net47 sky130_fd_sc_hd__o21a_1
XPHY_EDGE_ROW_0_Left_39 VGND VGND VPWR VPWR sky130_fd_sc_hd__decap_3
X_272_ _125_ _127_ net81 VGND VGND VPWR VPWR net35 sky130_fd_sc_hd__o21a_1
X_341_ reg_array\[1\]\[0\] net77 VGND VGND VPWR VPWR _183_ sky130_fd_sc_hd__and2_1
X_539_ net108 net17 net60 VGND VGND VPWR VPWR _103_ sky130_fd_sc_hd__mux2_1
X_608_ clknet_3_4__leaf_clk _060_ VGND VGND VPWR VPWR reg_array\[6\]\[4\] sky130_fd_sc_hd__dfxtp_1
XFILLER_4_82 VGND VGND VPWR VPWR sky130_fd_sc_hd__fill_2
X_324_ reg_array\[1\]\[13\] net84 VGND VGND VPWR VPWR _169_ sky130_fd_sc_hd__and2_1
Xfanout92 net4 VGND VGND VPWR VPWR net92 sky130_fd_sc_hd__buf_2
XTAP_TAPCELL_ROW_31_209 VGND VPWR sky130_fd_sc_hd__tapvpwrvgnd_1
Xfanout70 _248_ VGND VGND VPWR VPWR net70 sky130_fd_sc_hd__buf_2
X_255_ net93 net99 net95 VGND VGND VPWR VPWR _113_ sky130_fd_sc_hd__or3_1
Xfanout81 _113_ VGND VGND VPWR VPWR net81 sky130_fd_sc_hd__clkbuf_4
XFILLER_0_29 VPWR VGND VPWR VGND sky130_ef_sc_hd__decap_12
XFILLER_2_126 VPWR VGND VPWR VGND sky130_ef_sc_hd__decap_12
XFILLER_1_181 VPWR VGND VPWR VGND sky130_ef_sc_hd__decap_12
XTAP_TAPCELL_ROW_0_83 VGND VPWR sky130_fd_sc_hd__tapvpwrvgnd_1
XFILLER_34_57 VPWR VGND VPWR VGND sky130_ef_sc_hd__decap_12
Xclkload1 clknet_3_1__leaf_clk VGND VGND VPWR VPWR clkload1/Y sky130_fd_sc_hd__clkinv_2
XFILLER_11_225 VGND VGND VPWR VPWR sky130_fd_sc_hd__fill_1
XFILLER_1_3 VPWR VGND VPWR VGND sky130_ef_sc_hd__decap_12
XPHY_EDGE_ROW_3_Left_42 VGND VGND VPWR VPWR sky130_fd_sc_hd__decap_3
X_307_ _153_ _155_ net82 VGND VGND VPWR VPWR net42 sky130_fd_sc_hd__o21a_1
Xhold79 reg_array\[4\]\[8\] VGND VGND VPWR VPWR net179 sky130_fd_sc_hd__dlygate4sd3_1
Xhold35 reg_array\[5\]\[6\] VGND VGND VPWR VPWR net135 sky130_fd_sc_hd__dlygate4sd3_1
XFILLER_29_35 VGND VGND VPWR VPWR sky130_fd_sc_hd__decap_3
Xhold13 reg_array\[1\]\[15\] VGND VGND VPWR VPWR net113 sky130_fd_sc_hd__dlygate4sd3_1
Xhold24 reg_array\[2\]\[11\] VGND VGND VPWR VPWR net124 sky130_fd_sc_hd__dlygate4sd3_1
Xhold68 reg_array\[7\]\[11\] VGND VGND VPWR VPWR net168 sky130_fd_sc_hd__dlygate4sd3_1
Xhold57 reg_array\[6\]\[14\] VGND VGND VPWR VPWR net157 sky130_fd_sc_hd__dlygate4sd3_1
Xhold46 reg_array\[7\]\[5\] VGND VGND VPWR VPWR net146 sky130_fd_sc_hd__dlygate4sd3_1
XFILLER_19_133 VGND VGND VPWR VPWR sky130_fd_sc_hd__decap_8
XFILLER_10_81 VGND VGND VPWR VPWR sky130_fd_sc_hd__decap_3
Xoutput47 net47 VGND VGND VPWR VPWR RD2[13] sky130_fd_sc_hd__buf_2
Xoutput58 net58 VGND VGND VPWR VPWR RD2[9] sky130_fd_sc_hd__buf_2
XTAP_TAPCELL_ROW_26_186 VGND VPWR sky130_fd_sc_hd__tapvpwrvgnd_1
Xoutput36 net36 VGND VGND VPWR VPWR RD1[3] sky130_fd_sc_hd__buf_2
X_572_ clknet_3_5__leaf_clk _024_ VGND VGND VPWR VPWR reg_array\[2\]\[0\] sky130_fd_sc_hd__dfxtp_1
X_641_ clknet_3_0__leaf_clk _093_ VGND VGND VPWR VPWR reg_array\[7\]\[5\] sky130_fd_sc_hd__dfxtp_1
XTAP_TAPCELL_ROW_17_153 VGND VPWR sky130_fd_sc_hd__tapvpwrvgnd_1
XFILLER_36_209 VPWR VGND VPWR VGND sky130_ef_sc_hd__decap_12
X_486_ net102 net15 net66 VGND VGND VPWR VPWR _053_ sky130_fd_sc_hd__mux2_1
XPHY_EDGE_ROW_32_Left_71 VGND VGND VPWR VPWR sky130_fd_sc_hd__decap_3
X_555_ clknet_3_1__leaf_clk _007_ VGND VGND VPWR VPWR reg_array\[4\]\[15\] sky130_fd_sc_hd__dfxtp_1
XFILLER_16_80 VGND VGND VPWR VPWR sky130_fd_sc_hd__decap_4
XTAP_TAPCELL_ROW_3_94 VGND VPWR sky130_fd_sc_hd__tapvpwrvgnd_1
X_624_ clknet_3_4__leaf_clk _076_ VGND VGND VPWR VPWR reg_array\[5\]\[4\] sky130_fd_sc_hd__dfxtp_1
XFILLER_37_79 VPWR VGND VPWR VGND sky130_ef_sc_hd__decap_12
XFILLER_37_57 VGND VGND VPWR VPWR sky130_fd_sc_hd__decap_4
XFILLER_35_220 VGND VGND VPWR VPWR sky130_fd_sc_hd__decap_4
Xhold110 reg_array\[4\]\[1\] VGND VGND VPWR VPWR net210 sky130_fd_sc_hd__dlygate4sd3_1
XTAP_TAPCELL_ROW_5_102 VGND VPWR sky130_fd_sc_hd__tapvpwrvgnd_1
XTAP_TAPCELL_ROW_34_218 VGND VPWR sky130_fd_sc_hd__tapvpwrvgnd_1
X_538_ net165 net16 net60 VGND VGND VPWR VPWR _102_ sky130_fd_sc_hd__mux2_1
X_607_ clknet_3_0__leaf_clk _059_ VGND VGND VPWR VPWR reg_array\[6\]\[3\] sky130_fd_sc_hd__dfxtp_1
X_271_ net93 _124_ _126_ net79 VGND VGND VPWR VPWR _127_ sky130_fd_sc_hd__a22o_1
XTAP_TAPCELL_ROW_11_126 VGND VPWR sky130_fd_sc_hd__tapvpwrvgnd_1
XFILLER_5_113 VPWR VGND VPWR VGND sky130_ef_sc_hd__decap_12
X_340_ reg_array\[4\]\[0\] reg_array\[5\]\[0\] reg_array\[6\]\[0\] reg_array\[7\]\[0\]
+ net91 net87 VGND VGND VPWR VPWR _182_ sky130_fd_sc_hd__mux4_1
X_469_ net139 net15 net67 VGND VGND VPWR VPWR _037_ sky130_fd_sc_hd__mux2_1
X_323_ reg_array\[4\]\[13\] reg_array\[5\]\[13\] reg_array\[6\]\[13\] reg_array\[7\]\[13\]
+ net98 net96 VGND VGND VPWR VPWR _168_ sky130_fd_sc_hd__mux4_1
Xfanout71 _247_ VGND VGND VPWR VPWR net71 sky130_fd_sc_hd__buf_4
Xfanout60 _253_ VGND VGND VPWR VPWR net60 sky130_fd_sc_hd__buf_2
Xfanout82 _113_ VGND VGND VPWR VPWR net82 sky130_fd_sc_hd__buf_2
X_254_ net93 net96 VGND VGND VPWR VPWR _112_ sky130_fd_sc_hd__nor2_1
XFILLER_2_138 VGND VGND VPWR VPWR sky130_fd_sc_hd__fill_2
Xfanout93 net94 VGND VGND VPWR VPWR net93 sky130_fd_sc_hd__buf_2
XTAP_TAPCELL_ROW_0_84 VGND VPWR sky130_fd_sc_hd__tapvpwrvgnd_1
XFILLER_1_193 VPWR VGND VPWR VGND sky130_ef_sc_hd__decap_12
XFILLER_34_69 VPWR VGND VPWR VGND sky130_ef_sc_hd__decap_12
Xclkload2 clknet_3_2__leaf_clk VGND VGND VPWR VPWR clkload2/Y sky130_fd_sc_hd__bufinv_16
XFILLER_18_26 VGND VGND VPWR VPWR sky130_fd_sc_hd__fill_2
X_306_ net94 _152_ _154_ net80 VGND VGND VPWR VPWR _155_ sky130_fd_sc_hd__a22o_1
XFILLER_37_167 VGND VGND VPWR VPWR sky130_fd_sc_hd__fill_1
Xhold25 reg_array\[7\]\[8\] VGND VGND VPWR VPWR net125 sky130_fd_sc_hd__dlygate4sd3_1
XFILLER_29_47 VGND VGND VPWR VPWR sky130_fd_sc_hd__decap_3
Xhold69 reg_array\[6\]\[1\] VGND VGND VPWR VPWR net169 sky130_fd_sc_hd__dlygate4sd3_1
Xhold47 reg_array\[6\]\[3\] VGND VGND VPWR VPWR net147 sky130_fd_sc_hd__dlygate4sd3_1
Xhold14 reg_array\[1\]\[7\] VGND VGND VPWR VPWR net114 sky130_fd_sc_hd__dlygate4sd3_1
Xhold36 reg_array\[6\]\[5\] VGND VGND VPWR VPWR net136 sky130_fd_sc_hd__dlygate4sd3_1
Xhold58 reg_array\[7\]\[7\] VGND VGND VPWR VPWR net158 sky130_fd_sc_hd__dlygate4sd3_1
XFILLER_19_167 VGND VGND VPWR VPWR sky130_fd_sc_hd__fill_1
XFILLER_10_60 VGND VGND VPWR VPWR sky130_fd_sc_hd__decap_4
XTAP_TAPCELL_ROW_26_187 VGND VPWR sky130_fd_sc_hd__tapvpwrvgnd_1
X_571_ clknet_3_1__leaf_clk _023_ VGND VGND VPWR VPWR reg_array\[3\]\[15\] sky130_fd_sc_hd__dfxtp_1
Xoutput48 net48 VGND VGND VPWR VPWR RD2[14] sky130_fd_sc_hd__buf_2
XPHY_EDGE_ROW_1_Right_1 VGND VGND VPWR VPWR sky130_fd_sc_hd__decap_3
XFILLER_0_225 VGND VGND VPWR VPWR sky130_fd_sc_hd__decap_4
Xoutput37 net37 VGND VGND VPWR VPWR RD1[4] sky130_fd_sc_hd__buf_2