*SPEF "ieee 1481-1999"
*DESIGN "Control_unit"
*DATE "16:54:24 Sunday November 16, 2025"
*VENDOR "The OpenROAD Project"
*PROGRAM "OpenROAD"
*VERSION "edf00dff99f6c40d67a30c0e22a8191c5d2ed9d6"
*DESIGN_FLOW "NAME_SCOPE LOCAL" "PIN_CAP NONE"
*DIVIDER /
*DELIMITER :
*BUS_DELIMITER []
*T_UNIT 1 NS
*C_UNIT 1 PF
*R_UNIT 1 OHM
*L_UNIT 1 HENRY

*NAME_MAP
*1 ALUControl[0]
*2 ALUControl[1]
*3 ALUControl[2]
*4 ALUControl[3]
*5 ALUSrc
*6 ImmSrc[0]
*7 ImmSrc[1]
*8 MemWrite
*9 PCSrc
*10 RegWrite
*11 ResultSrc
*14 func[0]
*15 func[1]
*16 func[2]
*17 func[3]
*18 opcode[0]
*19 opcode[1]
*20 opcode[2]
*21 zero
*22 _00_
*23 _01_
*24 _02_
*25 _03_
*26 _04_
*27 _05_
*28 _06_
*29 _07_
*30 _08_
*31 _09_
*32 _10_
*33 net1
*34 net10
*35 net11
*36 net12
*37 net13
*38 net14
*39 net15
*40 net16
*41 net17
*42 net18
*43 net19
*44 net2
*45 net20
*46 net21
*47 net22
*48 net23
*49 net3
*50 net4
*51 net5
*52 net6
*53 net7
*54 net8
*55 net9
*56 FILLER_0_13
*57 FILLER_0_27
*58 FILLER_0_35
*59 FILLER_0_9
*60 FILLER_1_10
*61 FILLER_1_18
*62 FILLER_1_44
*63 FILLER_2_19
*64 FILLER_2_27
*65 FILLER_2_29
*66 FILLER_2_38
*67 FILLER_2_7
*68 FILLER_3_21
*69 FILLER_3_3
*70 FILLER_3_33
*71 FILLER_3_42
*72 FILLER_3_7
*73 FILLER_4_16
*74 FILLER_4_20
*75 FILLER_4_34
*76 FILLER_4_7
*77 FILLER_5_15
*78 FILLER_5_23
*79 FILLER_5_28
*80 FILLER_5_40
*81 FILLER_5_7
*82 FILLER_6_18
*83 FILLER_6_26
*84 FILLER_6_43
*85 FILLER_6_6
*86 FILLER_7_12
*87 FILLER_7_16
*88 FILLER_7_21
*89 FILLER_7_27
*90 FILLER_7_29
*91 FILLER_7_6
*92 PHY_EDGE_ROW_0_Left_8
*93 PHY_EDGE_ROW_0_Right_0
*94 PHY_EDGE_ROW_1_Left_9
*95 PHY_EDGE_ROW_1_Right_1
*96 PHY_EDGE_ROW_2_Left_10
*97 PHY_EDGE_ROW_2_Right_2
*98 PHY_EDGE_ROW_3_Left_11
*99 PHY_EDGE_ROW_3_Right_3
*100 PHY_EDGE_ROW_4_Left_12
*101 PHY_EDGE_ROW_4_Right_4
*102 PHY_EDGE_ROW_5_Left_13
*103 PHY_EDGE_ROW_5_Right_5
*104 PHY_EDGE_ROW_6_Left_14
*105 PHY_EDGE_ROW_6_Right_6
*106 PHY_EDGE_ROW_7_Left_15
*107 PHY_EDGE_ROW_7_Right_7
*108 TAP_TAPCELL_ROW_0_16
*109 TAP_TAPCELL_ROW_2_17
*110 TAP_TAPCELL_ROW_4_18
*111 TAP_TAPCELL_ROW_6_19
*112 TAP_TAPCELL_ROW_7_20
*113 _11_
*114 _12_
*115 _13_
*116 _14_
*117 _15_
*118 _16_
*119 _17_
*120 _18_
*121 _19_
*122 _20_
*123 _21_
*124 _22_
*125 _23_
*126 _24_
*127 _25_
*128 _26_
*129 _27_
*130 _28_
*131 _29_
*132 _30_
*133 _31_
*134 _32_
*135 fanout22
*136 fanout23
*137 input1
*138 input2
*139 input3
*140 input4
*141 input5
*142 input6
*143 input7
*144 input8
*145 max_cap20
*146 output10
*147 output11
*148 output12
*149 output13
*150 output14
*151 output15
*152 output16
*153 output17
*154 output18
*155 output19
*156 output9
*157 wire21

*PORTS
ALUControl[0] O
ALUControl[1] O
ALUControl[2] O
ALUControl[3] O
ALUSrc O
ImmSrc[0] O
ImmSrc[1] O
MemWrite O
PCSrc O
RegWrite O
ResultSrc O
func[0] I
func[1] I
func[2] I
func[3] I
opcode[0] I
opcode[1] I
opcode[2] I
zero I

*D_NET *1 0.000877958
*CONN
*P ALUControl[0] O
*I *156:X O *D sky130_fd_sc_hd__buf_2
*CAP
1 ALUControl[0] 0.000402374
2 *156:X 0.000402374
3 ALUControl[0] ALUControl[1] 7.32103e-05
*RES
1 *156:X ALUControl[0] 7.4735 
*END

*D_NET *2 0.000616169
*CONN
*P ALUControl[1] O
*I *146:X O *D sky130_fd_sc_hd__buf_2
*CAP
1 ALUControl[1] 0.000220675
2 *146:X 0.000220675
3 ALUControl[1] *139:A 7.04457e-05
4 ALUControl[1] *146:A 3.1162e-05
5 ALUControl[0] ALUControl[1] 7.32103e-05
*RES
1 *146:X ALUControl[1] 5.41503 
*END

*D_NET *3 0.00105049
*CONN
*P ALUControl[2] O
*I *147:X O *D sky130_fd_sc_hd__buf_2
*CAP
1 ALUControl[2] 0.000463212
2 *147:X 0.000463212
3 ALUControl[2] *125:A_N 4.43871e-06
4 ALUControl[2] *138:A 0.000119631
*RES
1 *147:X ALUControl[2] 11.835 
*END

*D_NET *4 0.000683796
*CONN
*P ALUControl[3] O
*I *148:X O *D sky130_fd_sc_hd__buf_2
*CAP
1 ALUControl[3] 0.000277128
2 *148:X 0.000277128
3 ALUControl[3] *139:A 6.59989e-05
4 ALUControl[3] *140:A 6.35417e-05
5 ALUControl[3] *46:10 0
*RES
1 *148:X ALUControl[3] 6.89023 
*END

*D_NET *5 0.000748075
*CONN
*P ALUSrc O
*I *149:X O *D sky130_fd_sc_hd__buf_2
*CAP
1 ALUSrc 0.000345872
2 *149:X 0.000345872
3 ALUSrc RegWrite 5.63302e-05
*RES
1 *149:X ALUSrc 7.68697 
*END

*D_NET *6 0.000592254
*CONN
*P ImmSrc[0] O
*I *150:X O *D sky130_fd_sc_hd__buf_2
*CAP
1 ImmSrc[0] 0.000270064
2 *150:X 0.000270064
3 ImmSrc[0] PCSrc 2.96366e-05
4 ImmSrc[0] *144:A 2.24901e-05
*RES
1 *150:X ImmSrc[0] 7.1793 
*END

*D_NET *7 0.000661148
*CONN
*P ImmSrc[1] O
*I *151:X O *D sky130_fd_sc_hd__buf_2
*CAP
1 ImmSrc[1] 0.000301502
2 *151:X 0.000301502
3 ImmSrc[1] PCSrc 2.96366e-05
4 ImmSrc[1] *143:A 2.85068e-05
*RES
1 *151:X ImmSrc[1] 7.1793 
*END

*D_NET *8 0.00100356
*CONN
*P MemWrite O
*I *152:X O *D sky130_fd_sc_hd__buf_2
*CAP
1 MemWrite 0.000438496
2 *152:X 0.000438496
3 MemWrite *142:A 0
4 MemWrite *51:21 0.00012657
*RES
1 *152:X MemWrite 11.04 
*END

*D_NET *9 0.000712316
*CONN
*P PCSrc O
*I *153:X O *D sky130_fd_sc_hd__buf_2
*CAP
1 PCSrc 0.000326521
2 *153:X 0.000326521
3 PCSrc *153:A 0
4 ImmSrc[0] PCSrc 2.96366e-05
5 ImmSrc[1] PCSrc 2.96366e-05
*RES
1 *153:X PCSrc 7.6893 
*END

*D_NET *10 0.000916347
*CONN
*P RegWrite O
*I *154:X O *D sky130_fd_sc_hd__buf_2
*CAP
1 RegWrite 0.000393691
2 *154:X 0.000393691
3 RegWrite ResultSrc 5.33364e-05
4 RegWrite *140:A 0
5 RegWrite *149:A 1.92979e-05
6 ALUSrc RegWrite 5.63302e-05
*RES
1 *154:X RegWrite 5.19637 
*END

*D_NET *11 0.00063475
*CONN
*P ResultSrc O
*I *155:X O *D sky130_fd_sc_hd__buf_2
*CAP
1 ResultSrc 0.000262542
2 *155:X 0.000262542
3 ResultSrc *140:A 5.63302e-05
4 RegWrite ResultSrc 5.33364e-05
*RES
1 *155:X ResultSrc 6.66697 
*END

*D_NET *14 0.00077586
*CONN
*P func[0] I
*I *137:A I *D sky130_fd_sc_hd__buf_1
*CAP
1 func[0] 0.000364984
2 *137:A 0.000364984
3 *137:A *132:B 1.7386e-05
4 *137:A *144:A 2.85068e-05
*RES
1 func[0] *137:A 8.4843 
*END

*D_NET *15 0.00192061
*CONN
*P func[1] I
*I *138:A I *D sky130_fd_sc_hd__buf_1
*CAP
1 func[1] 0.000605789
2 *138:A 0.000605789
3 *138:A *121:A_N 0.000198939
4 *138:A *156:A 0
5 *138:A *33:8 0.000315527
6 *138:A *33:17 7.49327e-05
7 ALUControl[2] *138:A 0.000119631
*RES
1 func[1] *138:A 16.14 
*END

*D_NET *16 0.000448926
*CONN
*P func[2] I
*I *139:A I *D sky130_fd_sc_hd__buf_1
*CAP
1 func[2] 0.000156241
2 *139:A 0.000156241
3 *139:A *140:A 0
4 *139:A *46:14 0
5 ALUControl[1] *139:A 7.04457e-05
6 ALUControl[3] *139:A 6.59989e-05
*RES
1 func[2] *139:A 4.84677 
*END

*D_NET *17 0.00148033
*CONN
*P func[3] I
*I *140:A I *D sky130_fd_sc_hd__clkbuf_1
*CAP
1 func[3] 0.000587641
2 *140:A 0.000587641
3 *140:A *115:A 3.7837e-05
4 *140:A *115:B 4.89295e-05
5 *140:A *120:A 0
6 *140:A *120:D 5.62609e-05
7 *140:A *155:A 4.21518e-05
8 ALUControl[3] *140:A 6.35417e-05
9 RegWrite *140:A 0
10 ResultSrc *140:A 5.63302e-05
11 *139:A *140:A 0
*RES
1 func[3] *140:A 8.40637 
*END

*D_NET *18 0.000532809
*CONN
*P opcode[0] I
*I *141:A I *D sky130_fd_sc_hd__buf_1
*CAP
1 opcode[0] 0.000255159
2 *141:A 0.000255159
3 *141:A *143:A 2.24901e-05
*RES
1 opcode[0] *141:A 6.8343 
*END

*D_NET *19 0.000875958
*CONN
*P opcode[1] I
*I *142:A I *D sky130_fd_sc_hd__buf_1
*CAP
1 opcode[1] 0.000406224
2 *142:A 0.000406224
3 *142:A *152:A 0
4 *142:A *51:21 6.35104e-05
5 MemWrite *142:A 0
*RES
1 opcode[1] *142:A 10.86 
*END

*D_NET *20 0.000487581
*CONN
*P opcode[2] I
*I *143:A I *D sky130_fd_sc_hd__buf_1
*CAP
1 opcode[2] 0.000218292
2 *143:A 0.000218292
3 *143:A *47:12 0
4 ImmSrc[1] *143:A 2.85068e-05
5 *141:A *143:A 2.24901e-05
*RES
1 opcode[2] *143:A 5.35677 
*END

*D_NET *21 0.000604019
*CONN
*P zero I
*I *144:A I *D sky130_fd_sc_hd__clkbuf_1
*CAP
1 zero 0.000266039
2 *144:A 0.000266039
3 *144:A *132:B 2.09442e-05
4 ImmSrc[0] *144:A 2.24901e-05
5 *137:A *144:A 2.85068e-05
*RES
1 zero *144:A 6.12177 
*END

*D_NET *22 0.00369158
*CONN
*I *114:B I *D sky130_fd_sc_hd__or2_1
*I *131:B I *D sky130_fd_sc_hd__and4_1
*I *133:A2 I *D sky130_fd_sc_hd__a31o_1
*I *122:B I *D sky130_fd_sc_hd__and3b_1
*I *113:Y O *D sky130_fd_sc_hd__inv_2
*CAP
1 *114:B 0.00047585
2 *131:B 0.000182882
3 *133:A2 2.08101e-05
4 *122:B 0.000168998
5 *113:Y 0
6 *22:12 0.000274762
7 *22:10 0.000465376
8 *22:4 0.00067339
9 *114:B *116:C 4.82919e-05
10 *114:B *47:70 0.000605787
11 *114:B *52:30 1.60203e-05
12 *122:B *122:C 0.000114492
13 *122:B *133:A3 3.97957e-05
14 *122:B *133:B1 5.83121e-06
15 *122:B *153:A 0
16 *122:B *38:10 5.53249e-06
17 *131:B *131:A 0.000153927
18 *131:B *131:D 8.8266e-05
19 *131:B *134:A2 4.82919e-05
20 *131:B *134:B1 3.66286e-05
21 *22:10 *122:A_N 2.86623e-05
22 *22:10 *123:B 0
23 *22:10 *48:10 3.68769e-05
24 *22:10 *48:12 4.06899e-05
25 *22:10 *48:18 6.24291e-05
26 *22:10 *53:29 0
27 *22:12 *131:A 4.80285e-05
28 *22:12 *134:B1 4.99619e-05
*RES
1 *113:Y *22:4 1.6 
2 *22:4 *22:10 7.93 
3 *22:10 *22:12 1.485 
4 *22:12 *122:B 8.795 
5 *22:12 *133:A2 1.96 
6 *22:10 *131:B 5.275 
7 *22:4 *114:B 8.275 
*END

*D_NET *23 0.000421035
*CONN
*I *118:A I *D sky130_fd_sc_hd__nand2_1
*I *115:B I *D sky130_fd_sc_hd__nor2_1
*I *114:X O *D sky130_fd_sc_hd__or2_1
*CAP
1 *118:A 0
2 *115:B 8.61477e-06
3 *114:X 0.000115086
4 *23:12 0.0001237
5 *115:B *155:A 4.77719e-05
6 *23:12 *117:B 0
7 *23:12 *119:A1 2.75229e-05
8 *23:12 *120:D 2.56752e-06
9 *23:12 *149:A 3.62197e-05
10 *23:12 *24:17 1.06226e-05
11 *140:A *115:B 4.89295e-05
*RES
1 *114:X *23:12 7.43 
2 *23:12 *115:B 2.05 
3 *23:12 *118:A 1.6 
*END

*D_NET *24 0.00204844
*CONN
*I *118:B I *D sky130_fd_sc_hd__nand2_1
*I *120:D I *D sky130_fd_sc_hd__nor4_1
*I *119:B1 I *D sky130_fd_sc_hd__o21ai_1
*I *117:Y O *D sky130_fd_sc_hd__nand2b_1
*CAP
1 *118:B 2.12116e-05
2 *120:D 0.000300432
3 *119:B1 0
4 *117:Y 3.68288e-05
5 *24:17 0.000442459
6 *24:6 0.000157644
7 *118:B *155:A 4.82863e-05
8 *120:D *120:C 0
9 *120:D *129:A 0.000163173
10 *120:D *148:A 3.09233e-05
11 *120:D *157:A 1.47347e-05
12 *120:D *46:10 4.82919e-05
13 *120:D *50:20 1.14169e-05
14 *24:6 *119:A1 0.000123589
15 *24:6 *119:A2 0.000236126
16 *24:6 *47:70 0.000123955
17 *24:17 *119:A1 3.57349e-05
18 *24:17 *119:A2 4.66108e-05
19 *24:17 *149:A 0.000137571
20 *140:A *120:D 5.62609e-05
21 *23:12 *120:D 2.56752e-06
22 *23:12 *24:17 1.06226e-05
*RES
1 *117:Y *24:6 3.775 
2 *24:6 *119:B1 1.6 
3 *24:6 *24:17 4.595 
4 *24:17 *120:D 8.985 
5 *24:17 *118:B 4.05 
*END

*D_NET *25 0.00196509
*CONN
*I *145:A I *D sky130_fd_sc_hd__clkbuf_1
*I *128:A3 I *D sky130_fd_sc_hd__a32o_1
*I *120:Y O *D sky130_fd_sc_hd__nor4_1
*CAP
1 *145:A 7.03173e-05
2 *128:A3 0.000374032
3 *120:Y 0.000148534
4 *25:8 0.000592883
5 *128:A3 *124:B2 2.57408e-05
6 *128:A3 *124:C1 4.19967e-05
7 *128:A3 *126:A 9.08126e-05
8 *128:A3 *128:B1 0.000216681
9 *128:A3 *128:B2 0
10 *128:A3 *44:18 4.39911e-06
11 *145:A *126:A 4.66108e-05
12 *145:A *49:6 7.08554e-05
13 *25:8 *120:C 8.53113e-06
14 *25:8 *128:B2 0
15 *25:8 *49:23 0.000273695
*RES
1 *120:Y *25:8 7.02 
2 *25:8 *128:A3 9.06 
3 *25:8 *145:A 5.1 
*END

*D_NET *26 0.0010554
*CONN
*I *124:A2 I *D sky130_fd_sc_hd__a221o_1
*I *126:A I *D sky130_fd_sc_hd__or2_1
*I *121:X O *D sky130_fd_sc_hd__and2b_1
*CAP
1 *124:A2 4.72829e-05
2 *126:A 9.14199e-05
3 *121:X 0.00021135
4 *26:18 0.000350052
5 *124:A2 *124:A1 1.2818e-05
6 *124:A2 *45:10 5.68523e-06
7 *124:A2 *46:18 1.34556e-05
8 *126:A *127:B1 7.14241e-05
9 *26:18 *121:B 0.000114492
10 *26:18 *124:C1 0
11 *26:18 *125:A_N 0
12 *26:18 *128:A1 0
13 *128:A3 *126:A 9.08126e-05
14 *145:A *126:A 4.66108e-05
*RES
1 *121:X *26:18 7.4325 
2 *26:18 *126:A 5.5575 
3 *26:18 *124:A2 4.40625 
*END

*D_NET *27 0.00105266
*CONN
*I *157:A I *D sky130_fd_sc_hd__buf_1
*I *123:Y O *D sky130_fd_sc_hd__nor3_1
*CAP
1 *157:A 0.000331296
2 *123:Y 0.000331296
3 *157:A *120:A 0.000145977
4 *157:A *129:A 9.28507e-05
5 *157:A *131:C 7.00889e-06
6 *157:A *48:49 8.73389e-06
7 *157:A *50:18 5.02217e-05
8 *157:A *50:20 7.05373e-05
9 *120:D *157:A 1.47347e-05
*RES
1 *123:Y *157:A 12.945 
*END

*D_NET *28 0.00183758
*CONN
*I *134:A1 I *D sky130_fd_sc_hd__a21o_1
*I *126:B I *D sky130_fd_sc_hd__or2_1
*I *125:X O *D sky130_fd_sc_hd__and2b_1
*CAP
1 *134:A1 0.00015451
2 *126:B 0.000207292
3 *125:X 0.000221795
4 *28:10 0.000583597
5 *126:B *124:C1 0.000388784
6 *126:B *128:B2 1.47347e-05
7 *134:A1 *128:B2 0
8 *134:A1 *133:A3 0
9 *134:A1 *134:A2 9.50342e-06
10 *134:A1 *134:B1 5.53249e-06
11 *28:10 *128:A2 0
12 *28:10 *128:B2 0
13 *28:10 *133:A3 0
14 *28:10 *147:A 7.23602e-05
15 *28:10 *33:8 8.57024e-05
16 *28:10 *33:30 0
17 *28:10 *44:18 9.37731e-05
*RES
1 *125:X *28:10 7.56 
2 *28:10 *126:B 7.5 
3 *28:10 *134:A1 6.255 
*END

*D_NET *29 0.000646203
*CONN
*I *127:B1 I *D sky130_fd_sc_hd__a22o_1
*I *126:X O *D sky130_fd_sc_hd__or2_1
*CAP
1 *127:B1 0.000194157
2 *126:X 0.000194157
3 *127:B1 *124:A1 0.000127927
4 *127:B1 *127:A1 4.00541e-06
5 *127:B1 *127:A2 1.83847e-05
6 *127:B1 *45:10 2.30258e-05
7 *127:B1 *46:18 1.31227e-05
8 *126:A *127:B1 7.14241e-05
*RES
1 *126:X *127:B1 10.26 
*END

*D_NET *30 0.000309238
*CONN
*I *134:A2 I *D sky130_fd_sc_hd__a21o_1
*I *131:X O *D sky130_fd_sc_hd__and4_1
*CAP
1 *134:A2 0.000104302
2 *131:X 0.000104302
3 *134:A2 *134:B1 4.28396e-05
4 *131:B *134:A2 4.82919e-05
5 *134:A1 *134:A2 9.50342e-06
*RES
1 *131:X *134:A2 9.03 
*END

*D_NET *31 0.00111315
*CONN
*I *133:A3 I *D sky130_fd_sc_hd__a31o_1
*I *132:X O *D sky130_fd_sc_hd__xor2_1
*CAP
1 *133:A3 0.000419032
2 *132:X 0.000419032
3 *133:A3 *122:A_N 0.00016163
4 *133:A3 *122:C 7.3664e-05
5 *133:A3 *132:A 0
6 *133:A3 *38:10 0
7 *122:B *133:A3 3.97957e-05
8 *134:A1 *133:A3 0
9 *28:10 *133:A3 0
*RES
1 *132:X *133:A3 14.91 
*END

*D_NET *32 0.0003933
*CONN
*I *134:B1 I *D sky130_fd_sc_hd__a21o_1
*I *133:X O *D sky130_fd_sc_hd__a31o_1
*CAP
1 *134:B1 0.000106086
2 *133:X 0.000106086
3 *134:B1 *122:A_N 4.61658e-05
4 *131:B *134:B1 3.66286e-05
5 *134:A1 *134:B1 5.53249e-06
6 *134:A2 *134:B1 4.28396e-05
7 *22:12 *134:B1 4.99619e-05
*RES
1 *133:X *134:B1 9.375 
*END

*D_NET *33 0.0029624
*CONN
*I *132:A I *D sky130_fd_sc_hd__xor2_1
*I *128:A2 I *D sky130_fd_sc_hd__a32o_1
*I *124:B2 I *D sky130_fd_sc_hd__a221o_1
*I *121:A_N I *D sky130_fd_sc_hd__and2b_1
*I *125:B I *D sky130_fd_sc_hd__and2b_1
*I *137:X O *D sky130_fd_sc_hd__buf_1
*CAP
1 *132:A 0.000167389
2 *128:A2 2.40595e-05
3 *124:B2 8.20354e-05
4 *121:A_N 9.95501e-05
5 *125:B 0
6 *137:X 0
7 *33:30 0.000180454
8 *33:17 0.000215625
9 *33:8 0.000300555
10 *33:4 0.000426228
11 *121:A_N *125:A_N 9.826e-05
12 *121:A_N *147:A 0
13 *124:B2 *128:B1 6.87151e-05
14 *124:B2 *44:18 4.66108e-05
15 *124:B2 *44:44 0.000211219
16 *124:B2 *46:18 1.85674e-05
17 *128:A2 *128:A1 5.4003e-05
18 *132:A *132:B 6.55328e-05
19 *132:A *44:18 0
20 *33:8 *44:18 8.8266e-05
21 *33:30 *125:A_N 9.37731e-05
22 *33:30 *128:A1 2.07184e-05
23 *128:A3 *124:B2 2.57408e-05
24 *133:A3 *132:A 0
25 *138:A *121:A_N 0.000198939
26 *138:A *33:8 0.000315527
27 *138:A *33:17 7.49327e-05
28 *28:10 *128:A2 0
29 *28:10 *33:8 8.57024e-05
30 *28:10 *33:30 0
*RES
1 *137:X *33:4 1.6 
2 *33:4 *33:8 5.295 
3 *33:8 *125:B 1.6 
4 *33:8 *33:17 2.795 
5 *33:17 *121:A_N 6.045 
6 *33:17 *33:30 1.38 
7 *33:30 *124:B2 6.49875 
8 *33:30 *128:A2 4.215 
9 *33:4 *132:A 8.375 
*END

*D_NET *34 0.000413603
*CONN
*I *146:A I *D sky130_fd_sc_hd__buf_2
*I *127:X O *D sky130_fd_sc_hd__a22o_1
*CAP
1 *146:A 0.000139775
2 *127:X 0.000139775
3 *146:A *127:A1 4.77757e-05
4 *146:A *156:A 5.51158e-05
5 ALUControl[1] *146:A 3.1162e-05
*RES
1 *127:X *146:A 9.63 
*END

*D_NET *35 0.000380762
*CONN
*I *147:A I *D sky130_fd_sc_hd__buf_2
*I *128:X O *D sky130_fd_sc_hd__a32o_1
*CAP
1 *147:A 0.000130055
2 *128:X 0.000130055
3 *147:A *44:18 4.82919e-05
4 *121:A_N *147:A 0
5 *28:10 *147:A 7.23602e-05
*RES
1 *128:X *147:A 9.285 
*END

*D_NET *36 0.000373206
*CONN
*I *148:A I *D sky130_fd_sc_hd__buf_2
*I *129:X O *D sky130_fd_sc_hd__and2_1
*CAP
1 *148:A 0.000146709
2 *129:X 0.000146709
3 *148:A *129:A 4.37983e-06
4 *148:A *46:10 4.44841e-05
5 *120:D *148:A 3.09233e-05
*RES
1 *129:X *148:A 9.48 
*END

*D_NET *37 0.000899764
*CONN
*I *149:A I *D sky130_fd_sc_hd__buf_2
*I *118:Y O *D sky130_fd_sc_hd__nand2_1
*CAP
1 *149:A 0.000270571
2 *118:Y 0.000270571
3 *149:A *154:A 0.000115571
4 *149:A *155:A 4.99619e-05
5 RegWrite *149:A 1.92979e-05
6 *23:12 *149:A 3.62197e-05
7 *24:17 *149:A 0.000137571
*RES
1 *118:Y *149:A 12.225 
*END

*D_NET *38 0.00187643
*CONN
*I *124:C1 I *D sky130_fd_sc_hd__a221o_1
*I *150:A I *D sky130_fd_sc_hd__buf_2
*I *122:X O *D sky130_fd_sc_hd__and3b_1
*CAP
1 *124:C1 0.000473551
2 *150:A 5.47611e-05
3 *122:X 0.000100454
4 *38:10 0.000628765
5 *124:C1 *128:B2 0.000182586
6 *122:B *38:10 5.53249e-06
7 *126:B *124:C1 0.000388784
8 *128:A3 *124:C1 4.19967e-05
9 *133:A3 *38:10 0
10 *26:18 *124:C1 0
*RES
1 *122:X *38:10 7.235 
2 *38:10 *150:A 2.395 
3 *38:10 *124:C1 14.84 
*END

*D_NET *39 0.000517086
*CONN
*I *151:A I *D sky130_fd_sc_hd__buf_2
*I *133:B1 I *D sky130_fd_sc_hd__a31o_1
*I *130:X O *D sky130_fd_sc_hd__and3b_1
*CAP
1 *151:A 0.000105052
2 *133:B1 0.000127054
3 *130:X 0
4 *39:4 0.000232106
5 *133:B1 *122:C 2.97004e-06
6 *133:B1 *47:18 4.4073e-05
7 *122:B *133:B1 5.83121e-06
*RES
1 *130:X *39:4 1.6 
2 *39:4 *133:B1 7.775 
3 *39:4 *151:A 3.265 
*END

*D_NET *40 0.000565224
*CONN
*I *152:A I *D sky130_fd_sc_hd__buf_2
*I *116:X O *D sky130_fd_sc_hd__and3b_1
*CAP
1 *152:A 0.000160901
2 *116:X 0.000160901
3 *152:A *135:A 0.000116853
4 *152:A *48:8 0
5 *152:A *51:21 0
6 *152:A *53:6 0.00012657
7 *142:A *152:A 0
*RES
1 *116:X *152:A 9.975 
*END

*D_NET *41 0.000821728
*CONN
*I *153:A I *D sky130_fd_sc_hd__buf_2
*I *134:X O *D sky130_fd_sc_hd__a21o_1
*CAP
1 *153:A 0.000387559
2 *134:X 0.000387559
3 *153:A *122:C 4.66108e-05
4 PCSrc *153:A 0
5 *122:B *153:A 0
*RES
1 *134:X *153:A 11.79 
*END

*D_NET *42 0.000305431
*CONN
*I *154:A I *D sky130_fd_sc_hd__buf_2
*I *119:Y O *D sky130_fd_sc_hd__o21ai_1
*CAP
1 *154:A 9.49301e-05
2 *119:Y 9.49301e-05
3 *149:A *154:A 0.000115571
*RES
1 *119:Y *154:A 8.835 
*END

*D_NET *43 0.000471217
*CONN
*I *155:A I *D sky130_fd_sc_hd__buf_2
*I *115:Y O *D sky130_fd_sc_hd__nor2_1
*CAP
1 *155:A 0.000141523
2 *115:Y 0.000141523
3 *115:B *155:A 4.77719e-05
4 *118:B *155:A 4.82863e-05
5 *140:A *155:A 4.21518e-05
6 *149:A *155:A 4.99619e-05
*RES
1 *115:Y *155:A 5.735 
*END

*D_NET *44 0.00339305
*CONN
*I *127:A1 I *D sky130_fd_sc_hd__a22o_1
*I *121:B I *D sky130_fd_sc_hd__and2b_1
*I *128:A1 I *D sky130_fd_sc_hd__a32o_1
*I *125:A_N I *D sky130_fd_sc_hd__and2b_1
*I *138:X O *D sky130_fd_sc_hd__buf_1
*CAP
1 *127:A1 0.000254409
2 *121:B 9.0241e-05
3 *128:A1 2.90736e-05
4 *125:A_N 0.000107985
5 *138:X 0.000322718
6 *44:44 0.000512655
7 *44:20 0.000137059
8 *44:18 0.000490722
9 *127:A1 *127:A2 0.000173638
10 *127:A1 *128:B1 1.19928e-05
11 *127:A1 *156:A 8.49571e-05
12 *127:A1 *46:18 0.000235857
13 *128:A1 *128:B2 4.18603e-06
14 *44:44 *128:B1 7.52926e-06
15 ALUControl[2] *125:A_N 4.43871e-06
16 *121:A_N *125:A_N 9.826e-05
17 *124:B2 *44:18 4.66108e-05
18 *124:B2 *44:44 0.000211219
19 *127:B1 *127:A1 4.00541e-06
20 *128:A2 *128:A1 5.4003e-05
21 *128:A3 *44:18 4.39911e-06
22 *132:A *44:18 0
23 *146:A *127:A1 4.77757e-05
24 *147:A *44:18 4.82919e-05
25 *26:18 *121:B 0.000114492
26 *26:18 *125:A_N 0
27 *26:18 *128:A1 0
28 *28:10 *44:18 9.37731e-05
29 *33:8 *44:18 8.8266e-05
30 *33:30 *125:A_N 9.37731e-05
31 *33:30 *128:A1 2.07184e-05
*RES
1 *138:X *44:18 10.505 
2 *44:18 *44:20 2 
3 *44:20 *125:A_N 5.94 
4 *44:20 *128:A1 4.47 
5 *44:18 *44:44 2.535 
6 *44:44 *121:B 7.43 
7 *44:44 *127:A1 7.165 
*END

*D_NET *45 0.000631716
*CONN
*I *124:A1 I *D sky130_fd_sc_hd__a221o_1
*I *127:B2 I *D sky130_fd_sc_hd__a22o_1
*I *145:X O *D sky130_fd_sc_hd__clkbuf_1
*CAP
1 *124:A1 6.78611e-05
2 *127:B2 0
3 *145:X 6.48964e-05
4 *45:10 0.000132758
5 *124:A1 *46:18 8.4965e-05
6 *45:10 *46:14 0.00011178
7 *124:A2 *124:A1 1.2818e-05
8 *124:A2 *45:10 5.68523e-06
9 *127:B1 *124:A1 0.000127927
10 *127:B1 *45:10 2.30258e-05
*RES
1 *145:X *45:10 6.98 
2 *45:10 *127:B2 1.6 
3 *45:10 *124:A1 3.445 
*END

*D_NET *46 0.00236922
*CONN
*I *129:B I *D sky130_fd_sc_hd__and2_1
*I *127:A2 I *D sky130_fd_sc_hd__a22o_1
*I *128:B1 I *D sky130_fd_sc_hd__a32o_1
*I *124:B1 I *D sky130_fd_sc_hd__a221o_1
*I *157:X O *D sky130_fd_sc_hd__buf_1
*CAP
1 *129:B 3.37454e-05
2 *127:A2 4.17894e-05
3 *128:B1 6.5382e-05
4 *124:B1 0
5 *157:X 0.000113552
6 *46:18 0.000132409
7 *46:14 0.000380393
8 *46:10 0.000418874
9 *46:10 *129:A 0.000106516
10 *46:14 *129:A 9.09788e-06
11 ALUControl[3] *46:10 0
12 *120:D *46:10 4.82919e-05
13 *124:A1 *46:18 8.4965e-05
14 *124:A2 *46:18 1.34556e-05
15 *124:B2 *128:B1 6.87151e-05
16 *124:B2 *46:18 1.85674e-05
17 *127:A1 *127:A2 0.000173638
18 *127:A1 *128:B1 1.19928e-05
19 *127:A1 *46:18 0.000235857
20 *127:B1 *127:A2 1.83847e-05
21 *127:B1 *46:18 1.31227e-05
22 *128:A3 *128:B1 0.000216681
23 *139:A *46:14 0
24 *148:A *46:10 4.44841e-05
25 *44:44 *128:B1 7.52926e-06
26 *45:10 *46:14 0.00011178
*RES
1 *157:X *46:10 5.775 
2 *46:10 *46:14 6.44 
3 *46:14 *46:18 2.535 
4 *46:18 *124:B1 1.6 
5 *46:18 *128:B1 3.9625 
6 *46:14 *127:A2 3.1 
7 *46:10 *129:B 4.05 
*END

*D_NET *47 0.00405735
*CONN
*I *119:A1 I *D sky130_fd_sc_hd__o21ai_1
*I *114:A I *D sky130_fd_sc_hd__or2_1
*I *116:A_N I *D sky130_fd_sc_hd__and3b_1
*I *130:C I *D sky130_fd_sc_hd__and3b_1
*I *133:A1 I *D sky130_fd_sc_hd__a31o_1
*I *122:C I *D sky130_fd_sc_hd__and3b_1
*I *135:X O *D sky130_fd_sc_hd__buf_1
*CAP
1 *119:A1 0.000105698
2 *114:A 0
3 *116:A_N 3.9347e-05
4 *130:C 0
5 *133:A1 0
6 *122:C 8.43176e-05
7 *135:X 0.000121859
8 *47:70 0.000443494
9 *47:45 0.000377143
10 *47:18 0.000207562
11 *47:12 0.000191588
12 *47:10 0.000190203
13 *116:A_N *53:6 5.05437e-05
14 *119:A1 *119:A2 2.10214e-05
15 *122:C *122:A_N 1.01661e-05
16 *47:10 *48:8 2.25075e-05
17 *47:10 *48:10 2.9664e-05
18 *47:10 *51:8 1.4389e-05
19 *47:12 *48:10 4.70343e-05
20 *47:18 *122:A_N 4.18603e-06
21 *47:18 *48:10 1.01661e-05
22 *47:18 *48:12 5.13358e-05
23 *47:18 *48:18 4.60916e-05
24 *47:70 *116:C 0.000162311
25 *47:70 *117:A_N 0.000114024
26 *47:70 *117:B 1.12643e-05
27 *47:70 *119:A2 5.0568e-05
28 *47:70 *48:10 6.57653e-06
29 *47:70 *52:30 0.000309607
30 *47:70 *53:6 0.000136284
31 *114:B *47:70 0.000605787
32 *122:B *122:C 0.000114492
33 *133:A3 *122:C 7.3664e-05
34 *133:B1 *122:C 2.97004e-06
35 *133:B1 *47:18 4.4073e-05
36 *143:A *47:12 0
37 *153:A *122:C 4.66108e-05
38 *23:12 *119:A1 2.75229e-05
39 *24:6 *119:A1 0.000123589
40 *24:6 *47:70 0.000123955
41 *24:17 *119:A1 3.57349e-05
*RES
1 *135:X *47:10 5.685 
2 *47:10 *47:12 1.38 
3 *47:12 *47:18 3.21 
4 *47:18 *122:C 5.94 
5 *47:18 *133:A1 3.6 
6 *47:12 *130:C 3.6 
7 *47:10 *47:45 2 
8 *47:45 *116:A_N 2.395 
9 *47:45 *47:70 14.215 
10 *47:70 *114:A 1.6 
11 *47:70 *119:A1 3.775 
*END

*D_NET *48 0.00414857
*CONN
*I *116:B I *D sky130_fd_sc_hd__and3b_1
*I *115:A I *D sky130_fd_sc_hd__nor2_1
*I *117:B I *D sky130_fd_sc_hd__nand2b_1
*I *130:B I *D sky130_fd_sc_hd__and3b_1
*I *131:A I *D sky130_fd_sc_hd__and4_1
*I *122:A_N I *D sky130_fd_sc_hd__and3b_1
*I *136:X O *D sky130_fd_sc_hd__buf_1
*CAP
1 *116:B 3.38751e-05
2 *115:A 0.000115367
3 *117:B 0.000125187
4 *130:B 0.000108572
5 *131:A 0.0002117
6 *122:A_N 6.47082e-05
7 *136:X 4.75317e-05
8 *48:49 0.000578382
9 *48:18 0.000357494
10 *48:12 0.000216605
11 *48:10 0.000468239
12 *48:8 0.000184871
13 *115:A *50:18 1.4389e-05
14 *116:B *53:6 4.82863e-05
15 *117:B *119:A2 6.03947e-06
16 *117:B *52:12 0
17 *131:A *131:C 0.00012657
18 *131:A *131:D 2.30292e-05
19 *48:49 *120:A 4.35348e-05
20 *48:49 *123:C 4.82919e-05
21 *48:49 *130:A_N 0.00046193
22 *122:C *122:A_N 1.01661e-05
23 *131:B *131:A 0.000153927
24 *133:A3 *122:A_N 0.00016163
25 *134:B1 *122:A_N 4.61658e-05
26 *140:A *115:A 3.7837e-05
27 *152:A *48:8 0
28 *157:A *48:49 8.73389e-06
29 *22:10 *122:A_N 2.86623e-05
30 *22:10 *48:10 3.68769e-05
31 *22:10 *48:12 4.06899e-05
32 *22:10 *48:18 6.24291e-05
33 *22:12 *131:A 4.80285e-05
34 *23:12 *117:B 0
35 *47:10 *48:8 2.25075e-05
36 *47:10 *48:10 2.9664e-05
37 *47:12 *48:10 4.70343e-05
38 *47:18 *122:A_N 4.18603e-06
39 *47:18 *48:10 1.01661e-05
40 *47:18 *48:12 5.13358e-05
41 *47:18 *48:18 4.60916e-05
42 *47:70 *117:B 1.12643e-05
43 *47:70 *48:10 6.57653e-06
*RES
1 *136:X *48:8 4.47 
2 *48:8 *48:10 2.4 
3 *48:10 *48:12 1.125 
4 *48:12 *48:18 1.935 
5 *48:18 *122:A_N 5.745 
6 *48:18 *131:A 8.19 
7 *48:12 *130:B 4.74 
8 *48:10 *48:49 7.97 
9 *48:49 *117:B 7.34375 
10 *48:49 *115:A 3.445 
11 *48:8 *116:B 4.05 
*END

*D_NET *49 0.00252898
*CONN
*I *120:C I *D sky130_fd_sc_hd__nor4_1
*I *131:D I *D sky130_fd_sc_hd__and4_1
*I *128:B2 I *D sky130_fd_sc_hd__a32o_1
*I *139:X O *D sky130_fd_sc_hd__buf_1
*CAP
1 *120:C 4.95737e-05
2 *131:D 0.000178116
3 *128:B2 0.000193182
4 *139:X 0.000274673
5 *49:23 0.000357717
6 *49:6 0.000597883
7 *120:C *120:A 5.53249e-06
8 *120:C *129:A 0
9 *120:C *50:18 5.53249e-06
10 *131:D *131:C 0.000180383
11 *131:D *50:20 2.05056e-05
12 *120:D *120:C 0
13 *124:C1 *128:B2 0.000182586
14 *126:B *128:B2 1.47347e-05
15 *128:A1 *128:B2 4.18603e-06
16 *128:A3 *128:B2 0
17 *131:A *131:D 2.30292e-05
18 *131:B *131:D 8.8266e-05
19 *134:A1 *128:B2 0
20 *145:A *49:6 7.08554e-05
21 *25:8 *120:C 8.53113e-06
22 *25:8 *128:B2 0
23 *25:8 *49:23 0.000273695
24 *28:10 *128:B2 0
*RES
1 *139:X *49:6 5.5 
2 *49:6 *128:B2 9.14 
3 *49:6 *49:23 5.165 
4 *49:23 *131:D 6.93 
5 *49:23 *120:C 4.47 
*END

*D_NET *50 0.00165769
*CONN
*I *129:A I *D sky130_fd_sc_hd__and2_1
*I *120:B I *D sky130_fd_sc_hd__nor4_1
*I *131:C I *D sky130_fd_sc_hd__and4_1
*I *140:X O *D sky130_fd_sc_hd__clkbuf_1
*CAP
1 *129:A 0.000118413
2 *120:B 0
3 *131:C 5.56206e-05
4 *140:X 0.000174502
5 *50:20 0.000102099
6 *50:18 0.000339394
7 *50:18 *120:A 5.08304e-06
8 *115:A *50:18 1.4389e-05
9 *120:C *129:A 0
10 *120:C *50:18 5.53249e-06
11 *120:D *129:A 0.000163173
12 *120:D *50:20 1.14169e-05
13 *131:A *131:C 0.00012657
14 *131:D *131:C 0.000180383
15 *131:D *50:20 2.05056e-05
16 *148:A *129:A 4.37983e-06
17 *157:A *129:A 9.28507e-05
18 *157:A *131:C 7.00889e-06
19 *157:A *50:18 5.02217e-05
20 *157:A *50:20 7.05373e-05
21 *46:10 *129:A 0.000106516
22 *46:14 *129:A 9.09788e-06
*RES
1 *140:X *50:18 8.345 
2 *50:18 *50:20 1.14 
3 *50:20 *131:C 3.775 
4 *50:20 *120:B 1.6 
5 *50:18 *129:A 8.975 
*END

*D_NET *51 0.00339265
*CONN
*I *119:A2 I *D sky130_fd_sc_hd__o21ai_1
*I *123:B I *D sky130_fd_sc_hd__nor3_1
*I *136:A I *D sky130_fd_sc_hd__buf_1
*I *141:X O *D sky130_fd_sc_hd__buf_1
*CAP
1 *119:A2 0.0003178
2 *123:B 0.000118422
3 *136:A 2.08101e-05
4 *141:X 0.000243573
5 *51:21 0.000737367
6 *51:8 0.000565529
7 *119:A2 *117:A_N 7.35813e-05
8 *119:A2 *52:30 2.49909e-05
9 *123:B *120:A 4.82919e-05
10 *123:B *52:8 4.38051e-05
11 *123:B *52:12 0.000155928
12 *123:B *53:29 0.000220452
13 *136:A *135:A 0
14 *51:8 *135:A 9.91257e-05
15 *51:21 *135:A 6.26945e-05
16 *51:21 *52:8 9.54469e-05
17 MemWrite *51:21 0.00012657
18 *117:B *119:A2 6.03947e-06
19 *119:A1 *119:A2 2.10214e-05
20 *142:A *51:21 6.35104e-05
21 *152:A *51:21 0
22 *22:10 *123:B 0
23 *24:6 *119:A2 0.000236126
24 *24:17 *119:A2 4.66108e-05
25 *47:10 *51:8 1.4389e-05
26 *47:70 *119:A2 5.0568e-05
*RES
1 *141:X *51:8 5.515 
2 *51:8 *136:A 1.96 
3 *51:8 *51:21 7.7 
4 *51:21 *123:B 6.96 
5 *51:21 *119:A2 9.225 
*END

*D_NET *52 0.00294021
*CONN
*I *117:A_N I *D sky130_fd_sc_hd__nand2b_1
*I *113:A I *D sky130_fd_sc_hd__inv_2
*I *116:C I *D sky130_fd_sc_hd__and3b_1
*I *123:C I *D sky130_fd_sc_hd__nor3_1
*I *130:A_N I *D sky130_fd_sc_hd__and3b_1
*I *142:X O *D sky130_fd_sc_hd__buf_1
*CAP
1 *117:A_N 2.08829e-05
2 *113:A 0
3 *116:C 0.000107706
4 *123:C 7.08675e-06
5 *130:A_N 0.000163402
6 *142:X 7.25805e-05
7 *52:30 0.000187794
8 *52:28 0.000100971
9 *52:12 0.000264026
10 *52:8 0.000166118
11 *116:C *53:6 1.12578e-05
12 *123:C *120:A 3.83041e-05
13 *130:A_N *120:A 8.40269e-05
14 *52:30 *53:6 2.75145e-05
15 *52:30 *53:29 0.000134314
16 *114:B *116:C 4.82919e-05
17 *114:B *52:30 1.60203e-05
18 *117:B *52:12 0
19 *119:A2 *117:A_N 7.35813e-05
20 *119:A2 *52:30 2.49909e-05
21 *123:B *52:8 4.38051e-05
22 *123:B *52:12 0.000155928
23 *47:70 *116:C 0.000162311
24 *47:70 *117:A_N 0.000114024
25 *47:70 *52:30 0.000309607
26 *48:49 *123:C 4.82919e-05
27 *48:49 *130:A_N 0.00046193
28 *51:21 *52:8 9.54469e-05
*RES
1 *142:X *52:8 5.235 
2 *52:8 *52:12 3.89 
3 *52:12 *130:A_N 5.845 
4 *52:12 *123:C 2.05 
5 *52:8 *52:28 2 
6 *52:28 *52:30 3.21 
7 *52:30 *116:C 3.79 
8 *52:30 *113:A 1.6 
9 *52:28 *117:A_N 2.74 
*END

*D_NET *53 0.00308791
*CONN
*I *120:A I *D sky130_fd_sc_hd__nor4_1
*I *123:A I *D sky130_fd_sc_hd__nor3_1
*I *135:A I *D sky130_fd_sc_hd__buf_1
*I *143:X O *D sky130_fd_sc_hd__buf_1
*CAP
1 *120:A 0.000151335
2 *123:A 0
3 *135:A 0.000222412
4 *143:X 0.000224142
5 *53:29 0.000395075
6 *53:6 0.000690295
7 *116:A_N *53:6 5.05437e-05
8 *116:B *53:6 4.82863e-05
9 *116:C *53:6 1.12578e-05
10 *120:C *120:A 5.53249e-06
11 *123:B *120:A 4.82919e-05
12 *123:B *53:29 0.000220452
13 *123:C *120:A 3.83041e-05
14 *130:A_N *120:A 8.40269e-05
15 *136:A *135:A 0
16 *140:A *120:A 0
17 *152:A *135:A 0.000116853
18 *152:A *53:6 0.00012657
19 *157:A *120:A 0.000145977
20 *22:10 *53:29 0
21 *47:70 *53:6 0.000136284
22 *48:49 *120:A 4.35348e-05
23 *50:18 *120:A 5.08304e-06
24 *51:8 *135:A 9.91257e-05
25 *51:21 *135:A 6.26945e-05
26 *52:30 *53:6 2.75145e-05
27 *52:30 *53:29 0.000134314
*RES
1 *143:X *53:6 6.19 
2 *53:6 *135:A 10.115 
3 *53:6 *53:29 8.83 
4 *53:29 *123:A 1.6 
5 *53:29 *120:A 9.32 
*END

*D_NET *54 0.000284567
*CONN
*I *132:B I *D sky130_fd_sc_hd__xor2_1
*I *144:X O *D sky130_fd_sc_hd__clkbuf_1
*CAP
1 *132:B 9.03519e-05
2 *144:X 9.03519e-05
3 *132:A *132:B 6.55328e-05
4 *137:A *132:B 1.7386e-05
5 *144:A *132:B 2.09442e-05
*RES
1 *144:X *132:B 9.03 
*END

*D_NET *55 0.000494537
*CONN
*I *156:A I *D sky130_fd_sc_hd__buf_2
*I *124:X O *D sky130_fd_sc_hd__a221o_1
*CAP
1 *156:A 0.000177232
2 *124:X 0.000177232
3 *127:A1 *156:A 8.49571e-05
4 *138:A *156:A 0
5 *146:A *156:A 5.51158e-05
*RES
1 *124:X *156:A 10.08 
*END
