*SPEF "ieee 1481-1999"
*DESIGN "Control_Unit"
*DATE "21:21:39 Tuesday November 04, 2025"
*VENDOR "The OpenROAD Project"
*PROGRAM "OpenROAD"
*VERSION "24Q3-9297-g8daed51a74"
*DESIGN_FLOW "NAME_SCOPE LOCAL" "PIN_CAP NONE"
*DIVIDER /
*DELIMITER :
*BUS_DELIMITER []
*T_UNIT 1 NS
*C_UNIT 1 PF
*R_UNIT 1 OHM
*L_UNIT 1 HENRY

*NAME_MAP
*1 net9
*2 net10
*3 net11
*4 net12
*5 net13
*6 net14
*7 net15
*8 net16
*9 net17
*10 net18
*11 net19
*14 _02_
*15 _03_
*16 _04_
*17 _05_
*18 _06_
*19 _07_
*20 _08_
*21 _09_
*22 _10_
*23 _11_
*24 _12_
*25 _13_
*26 _14_
*27 _15_
*28 _16_
*29 _17_
*30 func[0]
*31 func[1]
*32 func[2]
*33 func[3]
*34 opcode[0]
*35 opcode[1]
*36 opcode[2]
*37 zero
*38 net1
*39 net2
*40 net3
*41 net4
*42 net5
*43 net6
*44 net7
*45 net8
*46 ALUControl[0]
*47 ALUControl[1]
*48 ALUControl[2]
*49 ALUControl[3]
*50 ALUSrc
*51 ImmSrc[0]
*52 ImmSrc[1]
*53 MemWrite
*54 PCSrc
*55 RegWrite
*56 ResultSrc
*57 TAP_TAPCELL_ROW_0_1
*58 TAP_TAPCELL_ROW_0_0
*59 _20_
*60 _21_
*61 _22_
*62 _23_
*63 _24_
*64 _25_
*65 _26_
*66 _27_
*67 _28_
*68 _29_
*69 _30_
*70 _31_
*71 _32_
*72 _33_
*73 _34_
*74 _35_
*75 _36_
*76 _37_
*77 _38_
*78 _39_
*79 _40_
*80 _41_
*81 _42_
*82 _43_
*83 _44_
*84 _45_
*85 _46_
*86 TAP_TAPCELL_ROW_1_2
*87 TAP_TAPCELL_ROW_2_3
*88 TAP_TAPCELL_ROW_3_4
*89 TAP_TAPCELL_ROW_4_5
*90 TAP_TAPCELL_ROW_5_6
*91 TAP_TAPCELL_ROW_6_7
*92 TAP_TAPCELL_ROW_7_8
*93 TAP_TAPCELL_ROW_8_9
*94 TAP_TAPCELL_ROW_9_10
*95 TAP_TAPCELL_ROW_10_11
*96 TAP_TAPCELL_ROW_11_12
*97 TAP_TAPCELL_ROW_11_13
*98 input1
*99 input2
*100 input3
*101 input4
*102 input5
*103 input6
*104 input7
*105 input8
*106 output9
*107 output10
*108 output11
*109 output12
*110 output13
*111 output14
*112 output15
*113 output16
*114 output17
*115 output18
*116 output19
*117 FILLER_0_0
*118 FILLER_0_8
*119 FILLER_0_16
*120 FILLER_0_24
*121 FILLER_0_28
*122 FILLER_0_31
*123 FILLER_0_39
*124 FILLER_0_47
*125 FILLER_0_55
*126 FILLER_0_59
*127 FILLER_0_61
*128 FILLER_0_69
*129 FILLER_0_73
*130 FILLER_0_75
*131 FILLER_1_0
*132 FILLER_1_8
*133 FILLER_1_16
*134 FILLER_1_24
*135 FILLER_1_32
*136 FILLER_1_40
*137 FILLER_1_48
*138 FILLER_1_56
*139 FILLER_1_61
*140 FILLER_1_69
*141 FILLER_1_73
*142 FILLER_1_75
*143 FILLER_2_0
*144 FILLER_2_8
*145 FILLER_2_16
*146 FILLER_2_24
*147 FILLER_2_28
*148 FILLER_2_31
*149 FILLER_2_39
*150 FILLER_2_47
*151 FILLER_2_55
*152 FILLER_2_63
*153 FILLER_2_71
*154 FILLER_2_75
*155 FILLER_3_0
*156 FILLER_3_4
*157 FILLER_3_13
*158 FILLER_3_21
*159 FILLER_3_29
*160 FILLER_3_37
*161 FILLER_3_45
*162 FILLER_3_50
*163 FILLER_3_58
*164 FILLER_3_61
*165 FILLER_3_69
*166 FILLER_3_73
*167 FILLER_3_75
*168 FILLER_4_0
*169 FILLER_4_12
*170 FILLER_4_16
*171 FILLER_4_18
*172 FILLER_4_31
*173 FILLER_4_57
*174 FILLER_4_59
*175 FILLER_4_68
*176 FILLER_5_0
*177 FILLER_5_17
*178 FILLER_5_21
*179 FILLER_5_35
*180 FILLER_5_43
*181 FILLER_5_57
*182 FILLER_5_59
*183 FILLER_5_61
*184 FILLER_5_63
*185 FILLER_5_72
*186 FILLER_6_0
*187 FILLER_6_2
*188 FILLER_6_17
*189 FILLER_6_25
*190 FILLER_6_29
*191 FILLER_6_31
*192 FILLER_6_49
*193 FILLER_6_55
*194 FILLER_6_63
*195 FILLER_6_73
*196 FILLER_6_75
*197 FILLER_7_0
*198 FILLER_7_2
*199 FILLER_7_19
*200 FILLER_7_27
*201 FILLER_7_35
*202 FILLER_7_39
*203 FILLER_7_50
*204 FILLER_7_61
*205 FILLER_7_73
*206 FILLER_7_75
*207 FILLER_8_0
*208 FILLER_8_4
*209 FILLER_8_6
*210 FILLER_8_21
*211 FILLER_8_29
*212 FILLER_8_31
*213 FILLER_8_35
*214 FILLER_8_37
*215 FILLER_8_53
*216 FILLER_8_63
*217 FILLER_8_71
*218 FILLER_8_75
*219 FILLER_9_0
*220 FILLER_9_4
*221 FILLER_9_22
*222 FILLER_9_30
*223 FILLER_9_38
*224 FILLER_9_46
*225 FILLER_9_54
*226 FILLER_9_58
*227 FILLER_9_61
*228 FILLER_9_69
*229 FILLER_9_73
*230 FILLER_9_75
*231 FILLER_10_0
*232 FILLER_10_9
*233 FILLER_10_13
*234 FILLER_10_17
*235 FILLER_10_31
*236 FILLER_10_39
*237 FILLER_10_47
*238 FILLER_10_55
*239 FILLER_10_63
*240 FILLER_10_71
*241 FILLER_10_75
*242 FILLER_11_0
*243 FILLER_11_8
*244 FILLER_11_16
*245 FILLER_11_24
*246 FILLER_11_28
*247 FILLER_11_31
*248 FILLER_11_47
*249 FILLER_11_56
*250 FILLER_11_61
*251 FILLER_11_69
*252 FILLER_11_73
*253 FILLER_11_75

*PORTS
ALUControl[0] O
ALUControl[1] O
ALUControl[2] O
ALUControl[3] O
ALUSrc O
ImmSrc[0] O
ImmSrc[1] O
MemWrite O
PCSrc O
RegWrite O
ResultSrc O
func[0] I
func[1] I
func[2] I
func[3] I
opcode[0] I
opcode[1] I
opcode[2] I
zero I

*D_NET *1 0.00101012
*CONN
*I *106:A I *D sky130_fd_sc_hd__clkdlybuf4s50_1
*I *66:Y O *D sky130_fd_sc_hd__o31ai_1
*CAP
1 *106:A 0.000307684
2 *66:Y 0.000307684
3 *106:A *65:D 6.24474e-06
4 *106:A *66:B1 0.000388503
*RES
1 *66:Y *106:A 24.0926 
*END

*D_NET *2 0.00108758
*CONN
*I *107:A I *D sky130_fd_sc_hd__clkdlybuf4s50_1
*I *71:Y O *D sky130_fd_sc_hd__mux2i_1
*CAP
1 *107:A 0.000256352
2 *71:Y 0.000256352
3 *107:A *73:B 4.89251e-05
4 *107:A *39:12 0.000415496
5 *107:A *39:16 0.000110458
*RES
1 *71:Y *107:A 26.4315 
*END

*D_NET *3 0.000309282
*CONN
*I *108:A I *D sky130_fd_sc_hd__clkdlybuf4s50_1
*I *74:Y O *D sky130_fd_sc_hd__nand2_1
*CAP
1 *108:A 0.000117105
2 *74:Y 0.000117105
3 *108:A ALUControl[2] 0
4 *108:A *73:C 7.50722e-05
5 *108:A *40:25 0
*RES
1 *74:Y *108:A 30.4689 
*END

*D_NET *4 0.000292408
*CONN
*I *109:A I *D sky130_fd_sc_hd__clkdlybuf4s50_1
*I *75:X O *D sky130_fd_sc_hd__and2_1
*CAP
1 *109:A 0.000146204
2 *75:X 0.000146204
*RES
1 *75:X *109:A 21.9947 
*END

*D_NET *5 0.000588333
*CONN
*I *110:A I *D sky130_fd_sc_hd__clkdlybuf4s50_1
*I *77:Y O *D sky130_fd_sc_hd__o21ai_0
*CAP
1 *110:A 0.000166274
2 *77:Y 0.000166274
3 *110:A *76:A_N 0.000112367
4 *110:A *43:105 3.67528e-06
5 *110:A *43:118 7.83506e-06
6 *110:A *44:10 0.000119312
7 *110:A *44:23 1.25946e-05
*RES
1 *77:Y *110:A 31.4388 
*END

*D_NET *6 0.000258746
*CONN
*I *111:A I *D sky130_fd_sc_hd__clkdlybuf4s50_1
*I *59:Y O *D sky130_fd_sc_hd__nor3b_1
*CAP
1 *111:A 0.000100825
2 *59:Y 0.000100825
3 *111:A *43:105 5.70953e-05
4 *111:A *44:23 0
*RES
1 *59:Y *111:A 30.1608 
*END

*D_NET *7 0.000954728
*CONN
*I *112:A I *D sky130_fd_sc_hd__clkdlybuf4s50_1
*I *61:Y O *D sky130_fd_sc_hd__nor3b_1
*CAP
1 *112:A 0.000477364
2 *61:Y 0.000477364
*RES
1 *61:Y *112:A 27.7095 
*END

*D_NET *8 0.000637306
*CONN
*I *113:A I *D sky130_fd_sc_hd__clkdlybuf4s50_1
*I *78:Y O *D sky130_fd_sc_hd__nor2_1
*CAP
1 *113:A 0.00025327
2 *78:Y 0.00025327
3 *113:A *78:B 1.83992e-05
4 *113:A *14:12 0.000112367
*RES
1 *78:Y *113:A 24.7918 
*END

*D_NET *9 0.000768808
*CONN
*I *114:A I *D sky130_fd_sc_hd__clkdlybuf4s50_1
*I *83:Y O *D sky130_fd_sc_hd__a21oi_1
*CAP
1 *114:A 0.000128625
2 *83:Y 0.000128625
3 *114:A *83:B1 6.98337e-06
4 *114:A *42:79 2.42962e-05
5 *114:A *42:85 0.00019682
6 *114:A *43:18 0.000283458
*RES
1 *83:Y *114:A 24.2613 
*END

*D_NET *10 0.000528167
*CONN
*I *115:A I *D sky130_fd_sc_hd__clkdlybuf4s50_1
*I *84:Y O *D sky130_fd_sc_hd__mux2i_1
*CAP
1 *115:A 0.000231743
2 *84:Y 0.000231743
3 *115:A *84:A0 6.46815e-05
*RES
1 *84:Y *115:A 24.2372 
*END

*D_NET *11 0.000256704
*CONN
*I *116:A I *D sky130_fd_sc_hd__clkdlybuf4s50_1
*I *85:Y O *D sky130_fd_sc_hd__nor2_1
*CAP
1 *116:A 3.35304e-05
2 *85:Y 3.35304e-05
3 *116:A *60:A 0.000149334
4 *116:A *85:A 4.03096e-05
*RES
1 *85:Y *116:A 20.355 
*END

*D_NET *14 0.00180182
*CONN
*I *78:A I *D sky130_fd_sc_hd__nor2_1
*I *77:A1 I *D sky130_fd_sc_hd__o21ai_0
*I *61:B I *D sky130_fd_sc_hd__nor3b_1
*I *60:Y O *D sky130_fd_sc_hd__inv_1
*CAP
1 *78:A 3.47451e-05
2 *77:A1 7.65656e-05
3 *61:B 8.6792e-05
4 *60:Y 0.000117197
5 *14:12 0.000342473
6 *14:6 0.000331058
7 *61:B MemWrite 6.85852e-05
8 *61:B *43:118 0.000163602
9 *77:A1 *76:A_N 6.46815e-05
10 *77:A1 *43:118 0.000161956
11 *78:A *78:B 4.76161e-06
12 *14:6 *60:A 2.48184e-05
13 *14:6 *78:B 2.85735e-05
14 *14:12 MemWrite 0.000141134
15 *14:12 *78:B 1.04731e-05
16 *14:12 *43:118 3.20407e-05
17 *113:A *14:12 0.000112367
*RES
1 *60:Y *14:6 11.3591 
2 *14:6 *14:12 8.9951 
3 *14:12 *61:B 16.8269 
4 *14:12 *77:A1 16.1364 
5 *14:6 *78:A 10.2378 
*END

*D_NET *15 0.000294487
*CONN
*I *66:A3 I *D sky130_fd_sc_hd__o31ai_1
*I *62:Y O *D sky130_fd_sc_hd__nor2_1
*CAP
1 *66:A3 8.08094e-05
2 *62:Y 8.08094e-05
3 *66:A3 *62:B 1.37039e-05
4 *66:A3 *66:A2 4.16147e-05
5 *66:A3 *83:A2 7.01935e-06
6 *66:A3 *38:41 7.05301e-05
*RES
1 *62:Y *66:A3 21.4401 
*END

*D_NET *16 0.00281446
*CONN
*I *70:A1 I *D sky130_fd_sc_hd__a21oi_1
*I *65:B I *D sky130_fd_sc_hd__nand4b_1
*I *67:B I *D sky130_fd_sc_hd__nand3_1
*I *73:C I *D sky130_fd_sc_hd__nand4_1
*I *63:Y O *D sky130_fd_sc_hd__nor3b_4
*CAP
1 *70:A1 0
2 *65:B 0
3 *67:B 0.000142169
4 *73:C 0.000445096
5 *63:Y 0.000309105
6 *16:32 0.000349742
7 *16:26 0.000343564
8 *67:B *67:A 6.92705e-05
9 *67:B *67:C 0.000120558
10 *67:B *71:A0 3.15011e-05
11 *67:B *17:10 1.03594e-05
12 *73:C ALUControl[2] 0
13 *73:C *71:A1 1.84217e-05
14 *73:C *73:D 3.90689e-06
15 *73:C *74:B 0.000143047
16 *73:C *75:A 1.18938e-05
17 *73:C *79:A 0.000110458
18 *73:C *39:33 8.36586e-06
19 *73:C *40:25 0
20 *73:C *41:10 3.69003e-05
21 *16:26 *79:A 2.17699e-05
22 *16:26 *80:C 0.000111352
23 *16:32 *70:A2 2.48716e-05
24 *16:32 *71:A0 5.61444e-05
25 *16:32 *80:C 6.27782e-05
26 *16:32 *17:10 0.000308111
27 *108:A *73:C 7.50722e-05
*RES
1 *63:Y *73:C 35.4842 
2 *73:C *16:26 11.6364 
3 *16:26 *16:32 11.2079 
4 *16:32 *67:B 18.0388 
5 *16:32 *65:B 13.7491 
6 *16:26 *70:A1 9.24915 
*END

*D_NET *17 0.002807
*CONN
*I *73:D I *D sky130_fd_sc_hd__nand4_1
*I *65:C I *D sky130_fd_sc_hd__nand4b_1
*I *67:C I *D sky130_fd_sc_hd__nand3_1
*I *64:Y O *D sky130_fd_sc_hd__nor2_1
*CAP
1 *73:D 0.000230473
2 *65:C 0
3 *67:C 9.80252e-05
4 *64:Y 4.51842e-05
5 *17:10 0.000340726
6 *17:6 0.000518358
7 *67:C *67:A 0.000129191
8 *67:C *38:60 5.03545e-06
9 *73:D *71:A1 5.34989e-05
10 *73:D *74:B 2.99929e-05
11 *73:D *80:C 0.000142408
12 *73:D *41:14 0.000260388
13 *17:6 *41:14 4.66492e-05
14 *17:6 *41:20 1.41976e-05
15 *17:10 *70:A2 7.444e-06
16 *17:10 *70:B1 5.44485e-05
17 *17:10 *38:60 6.71485e-05
18 *17:10 *43:50 0.000320895
19 *67:B *67:C 0.000120558
20 *67:B *17:10 1.03594e-05
21 *73:C *73:D 3.90689e-06
22 *16:32 *17:10 0.000308111
*RES
1 *64:Y *17:6 9.97254 
2 *17:6 *17:10 13.8065 
3 *17:10 *67:C 17.135 
4 *17:10 *65:C 13.7491 
5 *17:6 *73:D 23.8535 
*END

*D_NET *18 0.000768031
*CONN
*I *66:B1 I *D sky130_fd_sc_hd__o31ai_1
*I *65:Y O *D sky130_fd_sc_hd__nand4b_1
*CAP
1 *66:B1 0.000121202
2 *65:Y 0.000121202
3 *66:B1 *65:D 4.83738e-05
4 *66:B1 *38:41 8.87497e-05
5 *106:A *66:B1 0.000388503
*RES
1 *65:Y *66:B1 24.1167 
*END

*D_NET *19 0.000620472
*CONN
*I *71:A0 I *D sky130_fd_sc_hd__mux2i_1
*I *67:Y O *D sky130_fd_sc_hd__nand3_1
*CAP
1 *71:A0 0.000255191
2 *67:Y 0.000255191
3 *71:A0 *71:A1 1.72644e-05
4 *71:A0 *73:B 5.18062e-06
5 *67:B *71:A0 3.15011e-05
6 *16:32 *71:A0 5.61444e-05
*RES
1 *67:Y *71:A0 33.4828 
*END

*D_NET *20 0.00054292
*CONN
*I *70:A2 I *D sky130_fd_sc_hd__a21oi_1
*I *68:Y O *D sky130_fd_sc_hd__nor3_1
*CAP
1 *70:A2 0.000207833
2 *68:Y 0.000207833
3 *70:A2 *68:A 3.40041e-05
4 *70:A2 *68:C 5.04829e-06
5 *70:A2 *70:B1 8.36586e-06
6 *70:A2 *71:A1 1.54809e-05
7 *70:A2 *80:C 3.20407e-05
8 *16:32 *70:A2 2.48716e-05
9 *17:10 *70:A2 7.444e-06
*RES
1 *68:Y *70:A2 31.5781 
*END

*D_NET *21 0.00205103
*CONN
*I *75:B I *D sky130_fd_sc_hd__and2_1
*I *72:B I *D sky130_fd_sc_hd__nand2_1
*I *70:B1 I *D sky130_fd_sc_hd__a21oi_1
*I *69:Y O *D sky130_fd_sc_hd__nor3_1
*CAP
1 *75:B 0.000248659
2 *72:B 0
3 *70:B1 0.000147185
4 *69:Y 0.000285474
5 *21:10 0.000166581
6 *21:8 0.000553529
7 *70:B1 *64:A 1.97947e-05
8 *70:B1 *79:A 0.000110458
9 *70:B1 *80:C 0.000195541
10 *70:B1 *43:50 4.69204e-06
11 *75:B *74:A 0.000132606
12 *75:B *41:14 3.43119e-05
13 *21:8 *64:A 2.65831e-05
14 *21:8 *69:C 4.26431e-05
15 *21:8 *41:14 1.10258e-05
16 *21:8 *41:20 6.11359e-06
17 *21:10 *64:B 3.01683e-06
18 *21:10 *74:A 0
19 *70:A2 *70:B1 8.36586e-06
20 *17:10 *70:B1 5.44485e-05
*RES
1 *69:Y *21:8 13.8789 
2 *21:8 *21:10 0.578717 
3 *21:10 *70:B1 23.4354 
4 *21:10 *72:B 9.24915 
5 *21:8 *75:B 15.5427 
*END

*D_NET *22 0.00109434
*CONN
*I *71:A1 I *D sky130_fd_sc_hd__mux2i_1
*I *70:Y O *D sky130_fd_sc_hd__a21oi_1
*CAP
1 *71:A1 0.000260074
2 *70:Y 0.000260074
3 *71:A1 *73:B 0.000143161
4 *71:A1 *79:A 0.000307037
5 *71:A1 *80:C 8.72115e-06
6 *71:A1 *39:33 1.06049e-05
7 *70:A2 *71:A1 1.54809e-05
8 *71:A0 *71:A1 1.72644e-05
9 *73:C *71:A1 1.84217e-05
10 *73:D *71:A1 5.34989e-05
*RES
1 *70:Y *71:A1 35.3182 
*END

*D_NET *23 0.000605719
*CONN
*I *74:A I *D sky130_fd_sc_hd__nand2_1
*I *72:Y O *D sky130_fd_sc_hd__nand2_1
*CAP
1 *74:A 7.88262e-05
2 *72:Y 7.88262e-05
3 *74:A *41:14 0.000315461
4 *75:B *74:A 0.000132606
5 *21:10 *74:A 0
*RES
1 *72:Y *74:A 22.5734 
*END

*D_NET *24 0.000461941
*CONN
*I *74:B I *D sky130_fd_sc_hd__nand2_1
*I *73:Y O *D sky130_fd_sc_hd__nand4_1
*CAP
1 *74:B 0.000121227
2 *73:Y 0.000121227
3 *74:B *79:A 2.65667e-05
4 *74:B *80:C 1.62054e-05
5 *74:B *40:25 3.67528e-06
6 *73:C *74:B 0.000143047
7 *73:D *74:B 2.99929e-05
*RES
1 *73:Y *74:B 30.8842 
*END

*D_NET *25 0.00134445
*CONN
*I *85:B I *D sky130_fd_sc_hd__nor2_1
*I *78:B I *D sky130_fd_sc_hd__nor2_1
*I *77:B1 I *D sky130_fd_sc_hd__o21ai_0
*I *76:Y O *D sky130_fd_sc_hd__nand2b_1
*CAP
1 *85:B 6.02943e-06
2 *78:B 0.000250223
3 *77:B1 8.49855e-05
4 *76:Y 0.000276594
5 *25:24 0.000447861
6 *77:B1 *76:A_N 6.46815e-05
7 *77:B1 *76:B 3.16756e-05
8 *78:B *60:A 9.77342e-05
9 *78:B *85:A 1.63255e-05
10 *85:B *60:A 6.13007e-06
11 *78:A *78:B 4.76161e-06
12 *113:A *78:B 1.83992e-05
13 *14:6 *78:B 2.85735e-05
14 *14:12 *78:B 1.04731e-05
*RES
1 *76:Y *77:B1 21.4401 
2 *76:Y *25:24 21.7744 
3 *25:24 *78:B 16.3867 
4 *25:24 *85:B 9.45411 
*END

*D_NET *26 0.000148856
*CONN
*I *80:D I *D sky130_fd_sc_hd__nand4_1
*I *79:Y O *D sky130_fd_sc_hd__nor2b_1
*CAP
1 *80:D 3.97064e-05
2 *79:Y 3.97064e-05
3 *80:D *79:A 6.94431e-05
*RES
1 *79:Y *80:D 19.8004 
*END

*D_NET *27 0.00117718
*CONN
*I *83:A1 I *D sky130_fd_sc_hd__a21oi_1
*I *80:Y O *D sky130_fd_sc_hd__nand4_1
*CAP
1 *83:A1 0.00037867
2 *80:Y 0.00037867
3 *83:A1 *66:A1 0.000160047
4 *83:A1 *68:C 9.85505e-05
5 *83:A1 *41:20 1.03594e-05
6 *83:A1 *43:29 7.82074e-05
7 *83:A1 *43:50 7.26748e-05
*RES
1 *80:Y *83:A1 34.6299 
*END

*D_NET *28 0.000179446
*CONN
*I *82:A2 I *D sky130_fd_sc_hd__o21ai_0
*I *81:X O *D sky130_fd_sc_hd__xor2_1
*CAP
1 *82:A2 4.49868e-05
2 *81:X 4.49868e-05
3 *82:A2 *82:A1 6.5568e-05
4 *82:A2 *38:16 5.04829e-06
5 *82:A2 *38:31 1.88563e-05
*RES
1 *81:X *82:A2 19.7763 
*END

*D_NET *29 0.000986244
*CONN
*I *83:A2 I *D sky130_fd_sc_hd__a21oi_1
*I *82:Y O *D sky130_fd_sc_hd__o21ai_0
*CAP
1 *83:A2 0.000269565
2 *82:Y 0.000269565
3 *83:A2 *62:B 9.58394e-06
4 *83:A2 *66:A1 6.00269e-05
5 *83:A2 *82:A1 4.06814e-06
6 *83:A2 *82:B1 0.000216458
7 *83:A2 *38:31 6.78364e-06
8 *83:A2 *44:47 0.000143175
9 *66:A3 *83:A2 7.01935e-06
*RES
1 *82:Y *83:A2 33.6572 
*END

*D_NET *30 0.00101821
*CONN
*P func[0] I
*I *98:A I *D sky130_fd_sc_hd__clkdlybuf4s50_1
*CAP
1 func[0] 0.00032683
2 *98:A 0.00032683
3 *98:A RegWrite 0.000165749
4 *98:A *105:A 0.000198799
5 *98:A *38:12 0
*RES
1 func[0] *98:A 23.0782 
*END

*D_NET *31 0.00142979
*CONN
*P func[1] I
*I *99:A I *D sky130_fd_sc_hd__clkdlybuf4s50_1
*CAP
1 func[1] 0.000474665
2 *99:A 0.000474665
3 *99:A ALUControl[0] 0.00019444
4 *99:A ALUControl[1] 0.000145971
5 *99:A *101:A 2.32501e-05
6 *99:A *39:12 0.000116799
*RES
1 func[1] *99:A 26.5428 
*END

*D_NET *32 0.000359981
*CONN
*P func[2] I
*I *100:A I *D sky130_fd_sc_hd__clkdlybuf4s50_1
*CAP
1 func[2] 0.000170791
2 *100:A 0.000170791
3 *100:A *102:A 0
4 *100:A *40:12 1.83992e-05
*RES
1 func[2] *100:A 18.0877 
*END

*D_NET *33 0.000855463
*CONN
*P func[3] I
*I *101:A I *D sky130_fd_sc_hd__clkdlybuf4s50_1
*CAP
1 func[3] 0.000245712
2 *101:A 0.000245712
3 *101:A ALUControl[1] 0.000130979
4 *101:A ALUControl[2] 7.63507e-05
5 *101:A ALUControl[3] 0.000133459
6 *101:A *41:10 0
7 *99:A *101:A 2.32501e-05
*RES
1 func[3] *101:A 18.8446 
*END

*D_NET *34 0.000507023
*CONN
*P opcode[0] I
*I *102:A I *D sky130_fd_sc_hd__clkdlybuf4s50_1
*CAP
1 opcode[0] 0.00024632
2 *102:A 0.00024632
3 *102:A *42:10 1.43832e-05
4 *100:A *102:A 0
*RES
1 opcode[0] *102:A 19.7515 
*END

*D_NET *35 0.000451145
*CONN
*P opcode[1] I
*I *103:A I *D sky130_fd_sc_hd__clkdlybuf4s50_1
*CAP
1 opcode[1] 9.01037e-05
2 *103:A 9.01037e-05
3 *103:A ImmSrc[0] 0.000143796
4 *103:A PCSrc 0.000127141
*RES
1 opcode[1] *103:A 18.3574 
*END

*D_NET *36 0.000483371
*CONN
*P opcode[2] I
*I *104:A I *D sky130_fd_sc_hd__clkdlybuf4s50_1
*CAP
1 opcode[2] 0.000154583
2 *104:A 0.000154583
3 *104:A MemWrite 0.000174206
*RES
1 opcode[2] *104:A 18.0952 
*END

*D_NET *37 0.000479253
*CONN
*P zero I
*I *105:A I *D sky130_fd_sc_hd__clkdlybuf4s50_1
*CAP
1 zero 0.000140227
2 *105:A 0.000140227
3 *98:A *105:A 0.000198799
*RES
1 zero *105:A 18.4339 
*END

*D_NET *38 0.00641208
*CONN
*I *81:A I *D sky130_fd_sc_hd__xor2_1
*I *62:B I *D sky130_fd_sc_hd__nor2_1
*I *65:A_N I *D sky130_fd_sc_hd__nand4b_1
*I *73:B I *D sky130_fd_sc_hd__nand4_1
*I *68:B I *D sky130_fd_sc_hd__nor3_1
*I *67:A I *D sky130_fd_sc_hd__nand3_1
*I *79:B_N I *D sky130_fd_sc_hd__nor2b_1
*I *98:X O *D sky130_fd_sc_hd__clkdlybuf4s50_1
*CAP
1 *81:A 0
2 *62:B 2.52038e-05
3 *65:A_N 0
4 *73:B 0.000213563
5 *68:B 0
6 *67:A 0.000249313
7 *79:B_N 0.000540761
8 *98:X 0.000247037
9 *38:60 0.000380559
10 *38:43 0.000416309
11 *38:41 0.000306071
12 *38:31 0.000517454
13 *38:16 0.000855031
14 *38:12 0.000375128
15 *62:B *82:B1 1.00276e-05
16 *73:B *65:D 1.37566e-05
17 *73:B *68:A 0.000112367
18 *73:B *39:33 5.84419e-05
19 *79:B_N *82:A1 6.58081e-05
20 *79:B_N *84:A0 0
21 *79:B_N *44:45 0.000411795
22 *38:12 *81:B 0.000409902
23 *38:31 *82:A1 0.000123377
24 *38:31 *82:B1 5.31712e-05
25 *38:41 *65:D 3.5063e-05
26 *38:41 *66:A2 5.58331e-05
27 *38:60 *66:A2 9.78334e-05
28 *38:60 *68:A 9.43286e-05
29 *38:60 *43:46 6.27782e-05
30 *66:A3 *62:B 1.37039e-05
31 *66:A3 *38:41 7.05301e-05
32 *66:B1 *38:41 8.87497e-05
33 *67:B *67:A 6.92705e-05
34 *67:C *67:A 0.000129191
35 *67:C *38:60 5.03545e-06
36 *71:A0 *73:B 5.18062e-06
37 *71:A1 *73:B 0.000143161
38 *82:A2 *38:16 5.04829e-06
39 *82:A2 *38:31 1.88563e-05
40 *83:A2 *62:B 9.58394e-06
41 *83:A2 *38:31 6.78364e-06
42 *98:A *38:12 0
43 *107:A *73:B 4.89251e-05
44 *17:10 *38:60 6.71485e-05
*RES
1 *98:X *38:12 25.6566 
2 *38:12 *38:16 2.96592 
3 *38:16 *79:B_N 30.779 
4 *38:16 *38:31 5.16022 
5 *38:31 *38:41 7.88502 
6 *38:41 *38:43 4.5 
7 *38:43 *67:A 20.3233 
8 *38:43 *38:60 9.41035 
9 *38:60 *68:B 9.24915 
10 *38:60 *73:B 24.8233 
11 *38:41 *65:A_N 9.24915 
12 *38:31 *62:B 10.9612 
13 *38:12 *81:A 9.24915 
*END

*D_NET *39 0.00402118
*CONN
*I *71:S I *D sky130_fd_sc_hd__mux2i_1
*I *79:A I *D sky130_fd_sc_hd__nor2b_1
*I *73:A I *D sky130_fd_sc_hd__nand4_1
*I *65:D I *D sky130_fd_sc_hd__nand4b_1
*I *99:X O *D sky130_fd_sc_hd__clkdlybuf4s50_1
*CAP
1 *71:S 0
2 *79:A 0.00033388
3 *73:A 0
4 *65:D 0.000390655
5 *99:X 0.000283079
6 *39:33 0.000459948
7 *39:16 0.000560682
8 *39:12 0.000327038
9 *65:D ALUControl[0] 4.90775e-05
10 *79:A *80:A 6.08467e-05
11 *79:A *80:C 8.6638e-05
12 *66:B1 *65:D 4.83738e-05
13 *70:B1 *79:A 0.000110458
14 *71:A1 *79:A 0.000307037
15 *71:A1 *39:33 1.06049e-05
16 *73:B *65:D 1.37566e-05
17 *73:B *39:33 5.84419e-05
18 *73:C *79:A 0.000110458
19 *73:C *39:33 8.36586e-06
20 *74:B *79:A 2.65667e-05
21 *80:D *79:A 6.94431e-05
22 *99:A *39:12 0.000116799
23 *106:A *65:D 6.24474e-06
24 *107:A *39:12 0.000415496
25 *107:A *39:16 0.000110458
26 *16:26 *79:A 2.17699e-05
27 *38:41 *65:D 3.5063e-05
*RES
1 *99:X *39:12 26.7658 
2 *39:12 *39:16 5.778 
3 *39:16 *65:D 23.1151 
4 *39:16 *39:33 7.993 
5 *39:33 *73:A 9.24915 
6 *39:33 *79:A 20.0036 
7 *39:12 *71:S 9.24915 
*END

*D_NET *40 0.00314528
*CONN
*I *72:A I *D sky130_fd_sc_hd__nand2_1
*I *80:C I *D sky130_fd_sc_hd__nand4_1
*I *63:B I *D sky130_fd_sc_hd__nor3b_4
*I *100:X O *D sky130_fd_sc_hd__clkdlybuf4s50_1
*CAP
1 *72:A 0
2 *80:C 0.000275021
3 *63:B 3.30578e-05
4 *100:X 0.000707505
5 *40:25 0.000461812
6 *40:12 0.000927354
7 *80:C *80:A 6.27718e-05
8 *40:12 *69:B 0
9 *40:12 *42:16 0
10 *40:25 *69:A 0
11 *40:25 *69:B 0
12 *70:A2 *80:C 3.20407e-05
13 *70:B1 *80:C 0.000195541
14 *71:A1 *80:C 8.72115e-06
15 *73:C *40:25 0
16 *73:D *80:C 0.000142408
17 *74:B *80:C 1.62054e-05
18 *74:B *40:25 3.67528e-06
19 *79:A *80:C 8.6638e-05
20 *100:A *40:12 1.83992e-05
21 *108:A *40:25 0
22 *16:26 *80:C 0.000111352
23 *16:32 *80:C 6.27782e-05
*RES
1 *100:X *40:12 32.1613 
2 *40:12 *63:B 9.97254 
3 *40:12 *40:25 8.85575 
4 *40:25 *80:C 22.6783 
5 *40:25 *72:A 13.7491 
*END

*D_NET *41 0.00355667
*CONN
*I *75:A I *D sky130_fd_sc_hd__and2_1
*I *64:B I *D sky130_fd_sc_hd__nor2_1
*I *80:B I *D sky130_fd_sc_hd__nand4_1
*I *68:C I *D sky130_fd_sc_hd__nor3_1
*I *101:X O *D sky130_fd_sc_hd__clkdlybuf4s50_1
*CAP
1 *75:A 3.55434e-05
2 *64:B 3.87543e-05
3 *80:B 0
4 *68:C 0.000136877
5 *101:X 0.000493892
6 *41:20 0.00032141
7 *41:14 0.000416117
8 *41:10 0.000722265
9 *64:B *69:C 0
10 *64:B *42:69 3.01683e-06
11 *68:C *68:A 6.08467e-05
12 *68:C *43:29 1.50924e-05
13 *68:C *43:46 0.000112361
14 *68:C *43:50 1.94615e-05
15 *41:14 *64:A 3.14978e-05
16 *41:20 *69:C 6.50727e-05
17 *41:20 *80:A 0.000208351
18 *41:20 *43:50 2.21991e-05
19 *41:20 *44:77 0
20 *70:A2 *68:C 5.04829e-06
21 *73:C *75:A 1.18938e-05
22 *73:C *41:10 3.69003e-05
23 *73:D *41:14 0.000260388
24 *74:A *41:14 0.000315461
25 *75:B *41:14 3.43119e-05
26 *83:A1 *68:C 9.85505e-05
27 *83:A1 *41:20 1.03594e-05
28 *101:A *41:10 0
29 *17:6 *41:14 4.66492e-05
30 *17:6 *41:20 1.41976e-05
31 *21:8 *41:14 1.10258e-05
32 *21:8 *41:20 6.11359e-06
33 *21:10 *64:B 3.01683e-06
*RES
1 *101:X *41:10 25.4541 
2 *41:10 *41:14 11.324 
3 *41:14 *41:20 9.68626 
4 *41:20 *68:C 17.829 
5 *41:20 *80:B 13.7491 
6 *41:14 *64:B 10.2378 
7 *41:10 *75:A 14.7506 
*END

*D_NET *42 0.00910487
*CONN
*I *80:A I *D sky130_fd_sc_hd__nand4_1
*I *66:A1 I *D sky130_fd_sc_hd__o31ai_1
*I *82:A1 I *D sky130_fd_sc_hd__o21ai_0
*I *84:S I *D sky130_fd_sc_hd__mux2i_1
*I *59:A I *D sky130_fd_sc_hd__nor3b_1
*I *60:A I *D sky130_fd_sc_hd__inv_1
*I *85:A I *D sky130_fd_sc_hd__nor2_1
*I *63:C_N I *D sky130_fd_sc_hd__nor3b_4
*I *69:B I *D sky130_fd_sc_hd__nor3_1
*I *102:X O *D sky130_fd_sc_hd__clkdlybuf4s50_1
*CAP
1 *80:A 0.000134562
2 *66:A1 0.000234123
3 *82:A1 0.000236325
4 *84:S 0
5 *59:A 0.000130117
6 *60:A 0.000285596
7 *85:A 4.28627e-05
8 *63:C_N 7.57473e-05
9 *69:B 0.000167733
10 *102:X 0.00026674
11 *42:85 0.000425591
12 *42:79 0.000678127
13 *42:77 0.000904573
14 *42:69 0.000678081
15 *42:40 0.000780315
16 *42:16 0.000543439
17 *42:10 0.00103795
18 *59:A *84:A0 0.000208698
19 *59:A *43:12 2.028e-05
20 *59:A *43:18 1.04731e-05
21 *63:C_N *63:A 4.80635e-06
22 *63:C_N *69:A 2.65667e-05
23 *63:C_N *44:77 5.56461e-05
24 *66:A1 *62:A 4.50571e-05
25 *66:A1 *83:B1 1.55025e-05
26 *66:A1 *43:29 7.50582e-05
27 *66:A1 *44:47 9.03762e-06
28 *69:B *64:A 0
29 *69:B *69:A 5.04734e-05
30 *69:B *44:77 0
31 *80:A *69:C 2.15184e-05
32 *80:A *43:50 0.000144102
33 *82:A1 PCSrc 7.86825e-06
34 *82:A1 *44:47 0
35 *42:16 ResultSrc 0
36 *42:40 ResultSrc 3.88314e-05
37 *42:77 *69:C 3.14978e-05
38 *42:77 *44:47 0.000109978
39 *42:77 *44:77 0.000130489
40 *42:79 *83:B1 2.29454e-05
41 *42:85 *43:18 7.01246e-05
42 *64:B *42:69 3.01683e-06
43 *78:B *60:A 9.77342e-05
44 *78:B *85:A 1.63255e-05
45 *79:A *80:A 6.08467e-05
46 *79:B_N *82:A1 6.58081e-05
47 *80:C *80:A 6.27718e-05
48 *82:A2 *82:A1 6.5568e-05
49 *83:A1 *66:A1 0.000160047
50 *83:A2 *66:A1 6.00269e-05
51 *83:A2 *82:A1 4.06814e-06
52 *85:B *60:A 6.13007e-06
53 *102:A *42:10 1.43832e-05
54 *114:A *42:79 2.42962e-05
55 *114:A *42:85 0.00019682
56 *116:A *60:A 0.000149334
57 *116:A *85:A 4.03096e-05
58 *14:6 *60:A 2.48184e-05
59 *38:31 *82:A1 0.000123377
60 *40:12 *69:B 0
61 *40:12 *42:16 0
62 *40:25 *69:B 0
63 *41:20 *80:A 0.000208351
*RES
1 *102:X *42:10 18.3836 
2 *42:10 *42:16 7.71881 
3 *42:16 *69:B 17.2421 
4 *42:16 *63:C_N 16.1605 
5 *42:10 *42:40 15.2063 
6 *42:40 *85:A 11.1059 
7 *42:40 *60:A 16.5615 
8 *69:B *42:69 9.82786 
9 *42:69 *42:77 18.899 
10 *42:77 *42:79 2.38721 
11 *42:79 *42:85 7.57154 
12 *42:85 *59:A 22.1896 
13 *42:85 *84:S 9.24915 
14 *42:79 *82:A1 24.8446 
15 *42:77 *66:A1 25.5386 
16 *42:69 *80:A 22.913 
*END

*D_NET *43 0.00791296
*CONN
*I *59:B I *D sky130_fd_sc_hd__nor3b_1
*I *76:B I *D sky130_fd_sc_hd__nand2b_1
*I *77:A2 I *D sky130_fd_sc_hd__o21ai_0
*I *61:A I *D sky130_fd_sc_hd__nor3b_1
*I *84:A1 I *D sky130_fd_sc_hd__mux2i_1
*I *68:A I *D sky130_fd_sc_hd__nor3_1
*I *64:A I *D sky130_fd_sc_hd__nor2_1
*I *69:C I *D sky130_fd_sc_hd__nor3_1
*I *66:A2 I *D sky130_fd_sc_hd__o31ai_1
*I *83:B1 I *D sky130_fd_sc_hd__a21oi_1
*I *103:X O *D sky130_fd_sc_hd__clkdlybuf4s50_1
*CAP
1 *59:B 6.88973e-05
2 *76:B 0.000111321
3 *77:A2 0
4 *61:A 0
5 *84:A1 0
6 *68:A 5.18238e-05
7 *64:A 6.84114e-05
8 *69:C 0.000104044
9 *66:A2 0.000239003
10 *83:B1 2.62461e-05
11 *103:X 0.000188955
12 *43:118 0.000289961
13 *43:105 0.000493793
14 *43:95 0.00038405
15 *43:50 0.00033137
16 *43:46 0.000236743
17 *43:29 0.000465475
18 *43:18 0.000993272
19 *43:12 0.000955513
20 *69:C *44:77 0
21 *76:B *76:A_N 0.000137448
22 *43:12 RegWrite 4.75721e-06
23 *43:18 *84:A0 6.07172e-05
24 *43:105 ALUSrc 1.5714e-05
25 *43:105 ImmSrc[0] 4.04556e-05
26 *43:105 ImmSrc[1] 2.02035e-05
27 *43:105 *44:23 0
28 *43:118 *76:A_N 2.30636e-05
29 *43:118 *44:10 5.11145e-05
30 *59:A *43:12 2.028e-05
31 *59:A *43:18 1.04731e-05
32 *61:B *43:118 0.000163602
33 *64:B *69:C 0
34 *66:A1 *83:B1 1.55025e-05
35 *66:A1 *43:29 7.50582e-05
36 *66:A3 *66:A2 4.16147e-05
37 *68:C *68:A 6.08467e-05
38 *68:C *43:29 1.50924e-05
39 *68:C *43:46 0.000112361
40 *68:C *43:50 1.94615e-05
41 *69:B *64:A 0
42 *70:A2 *68:A 3.40041e-05
43 *70:B1 *64:A 1.97947e-05
44 *70:B1 *43:50 4.69204e-06
45 *73:B *68:A 0.000112367
46 *77:A1 *43:118 0.000161956
47 *77:B1 *76:B 3.16756e-05
48 *80:A *69:C 2.15184e-05
49 *80:A *43:50 0.000144102
50 *83:A1 *43:29 7.82074e-05
51 *83:A1 *43:50 7.26748e-05
52 *110:A *43:105 3.67528e-06
53 *110:A *43:118 7.83506e-06
54 *111:A *43:105 5.70953e-05
55 *114:A *83:B1 6.98337e-06
56 *114:A *43:18 0.000283458
57 *14:12 *43:118 3.20407e-05
58 *17:10 *43:50 0.000320895
59 *21:8 *64:A 2.65831e-05
60 *21:8 *69:C 4.26431e-05
61 *38:41 *66:A2 5.58331e-05
62 *38:60 *66:A2 9.78334e-05
63 *38:60 *68:A 9.43286e-05
64 *38:60 *43:46 6.27782e-05
65 *41:14 *64:A 3.14978e-05
66 *41:20 *69:C 6.50727e-05
67 *41:20 *43:50 2.21991e-05
68 *42:77 *69:C 3.14978e-05
69 *42:79 *83:B1 2.29454e-05
70 *42:85 *43:18 7.01246e-05
*RES
1 *103:X *43:12 22.0503 
2 *43:12 *43:18 13.3828 
3 *43:18 *83:B1 10.5513 
4 *43:18 *43:29 5.71483 
5 *43:29 *66:A2 23.3244 
6 *43:29 *43:46 1.278 
7 *43:46 *43:50 11.1074 
8 *43:50 *69:C 17.2719 
9 *43:50 *64:A 15.9992 
10 *43:46 *68:A 11.6364 
11 *43:12 *84:A1 9.24915 
12 *103:X *43:95 9.24915 
13 *43:95 *43:105 12.5269 
14 *43:105 *61:A 13.7491 
15 *43:105 *43:118 10.7955 
16 *43:118 *77:A2 9.24915 
17 *43:118 *76:B 12.9686 
18 *43:95 *59:B 11.0817 
*END

*D_NET *44 0.00655907
*CONN
*I *76:A_N I *D sky130_fd_sc_hd__nand2b_1
*I *69:A I *D sky130_fd_sc_hd__nor3_1
*I *63:A I *D sky130_fd_sc_hd__nor3b_4
*I *82:B1 I *D sky130_fd_sc_hd__o21ai_0
*I *62:A I *D sky130_fd_sc_hd__nor2_1
*I *59:C_N I *D sky130_fd_sc_hd__nor3b_1
*I *84:A0 I *D sky130_fd_sc_hd__mux2i_1
*I *61:C_N I *D sky130_fd_sc_hd__nor3b_1
*I *104:X O *D sky130_fd_sc_hd__clkdlybuf4s50_1
*CAP
1 *76:A_N 0.000107506
2 *69:A 0.000169421
3 *63:A 1.90605e-05
4 *82:B1 5.73715e-05
5 *62:A 0.000106202
6 *59:C_N 0
7 *84:A0 0.000217078
8 *61:C_N 2.50391e-05
9 *104:X 0
10 *44:77 0.000595385
11 *44:47 0.000408288
12 *44:45 0.00102011
13 *44:36 0.00036849
14 *44:23 0.000592064
15 *44:10 0.000459003
16 *44:4 0.000166485
17 *61:C_N ALUSrc 1.84293e-05
18 *44:23 ALUSrc 3.83429e-05
19 *44:47 PCSrc 4.75721e-06
20 *59:A *84:A0 0.000208698
21 *62:B *82:B1 1.00276e-05
22 *63:C_N *63:A 4.80635e-06
23 *63:C_N *69:A 2.65667e-05
24 *63:C_N *44:77 5.56461e-05
25 *66:A1 *62:A 4.50571e-05
26 *66:A1 *44:47 9.03762e-06
27 *69:B *69:A 5.04734e-05
28 *69:B *44:77 0
29 *69:C *44:77 0
30 *76:B *76:A_N 0.000137448
31 *77:A1 *76:A_N 6.46815e-05
32 *77:B1 *76:A_N 6.46815e-05
33 *79:B_N *84:A0 0
34 *79:B_N *44:45 0.000411795
35 *82:A1 *44:47 0
36 *83:A2 *82:B1 0.000216458
37 *83:A2 *44:47 0.000143175
38 *110:A *76:A_N 0.000112367
39 *110:A *44:10 0.000119312
40 *110:A *44:23 1.25946e-05
41 *111:A *44:23 0
42 *115:A *84:A0 6.46815e-05
43 *38:31 *82:B1 5.31712e-05
44 *40:25 *69:A 0
45 *41:20 *44:77 0
46 *42:77 *44:47 0.000109978
47 *42:77 *44:77 0.000130489
48 *43:18 *84:A0 6.07172e-05
49 *43:105 *44:23 0
50 *43:118 *76:A_N 2.30636e-05
51 *43:118 *44:10 5.11145e-05
*RES
1 *104:X *44:4 9.24915 
2 *44:4 *44:10 11.2472 
3 *44:10 *61:C_N 9.97254 
4 *44:10 *44:23 13.5629 
5 *44:23 *84:A0 20.3233 
6 *44:23 *44:36 4.5 
7 *44:36 *59:C_N 9.24915 
8 *44:36 *44:45 14.6517 
9 *44:45 *44:47 5.98452 
10 *44:47 *62:A 16.2162 
11 *44:47 *82:B1 16.7151 
12 *44:45 *44:77 14.9508 
13 *44:77 *63:A 9.82786 
14 *44:77 *69:A 22.329 
15 *44:4 *76:A_N 13.9271 
*END

*D_NET *45 0.000717655
*CONN
*I *81:B I *D sky130_fd_sc_hd__xor2_1
*I *105:X O *D sky130_fd_sc_hd__clkdlybuf4s50_1
*CAP
1 *81:B 0.000153876
2 *105:X 0.000153876
3 *38:12 *81:B 0.000409902
*RES
1 *105:X *81:B 23.6585 
*END

*D_NET *46 0.00183076
*CONN
*P ALUControl[0] O
*I *106:X O *D sky130_fd_sc_hd__clkdlybuf4s50_1
*CAP
1 ALUControl[0] 0.000793623
2 *106:X 0.000793623
3 *65:D ALUControl[0] 4.90775e-05
4 *99:A ALUControl[0] 0.00019444
*RES
1 *106:X ALUControl[0] 20.9917 
*END

*D_NET *47 0.000544875
*CONN
*P ALUControl[1] O
*I *107:X O *D sky130_fd_sc_hd__clkdlybuf4s50_1
*CAP
1 ALUControl[1] 0.000133962
2 *107:X 0.000133962
3 *99:A ALUControl[1] 0.000145971
4 *101:A ALUControl[1] 0.000130979
*RES
1 *107:X ALUControl[1] 18.801 
*END

*D_NET *48 0.000926841
*CONN
*P ALUControl[2] O
*I *108:X O *D sky130_fd_sc_hd__clkdlybuf4s50_1
*CAP
1 ALUControl[2] 0.000363852
2 *108:X 0.000363852
3 ALUControl[2] ALUControl[3] 0.000122787
4 *73:C ALUControl[2] 0
5 *101:A ALUControl[2] 7.63507e-05
6 *108:A ALUControl[2] 0
*RES
1 *108:X ALUControl[2] 20.3199 
*END

*D_NET *49 0.000369908
*CONN
*P ALUControl[3] O
*I *109:X O *D sky130_fd_sc_hd__clkdlybuf4s50_1
*CAP
1 ALUControl[3] 5.68309e-05
2 *109:X 5.68309e-05