* NGSPICE file created from Data_Memory.ext - technology: sky130A

* Black-box entry subcircuit for sky130_fd_sc_hd__decap_8 abstract view
.subckt sky130_fd_sc_hd__decap_8 VGND VNB VPB VPWR
.ends

* Black-box entry subcircuit for sky130_fd_sc_hd__or2_1 abstract view
.subckt sky130_fd_sc_hd__or2_1 A B VGND VNB VPB VPWR X
.ends

* Black-box entry subcircuit for sky130_fd_sc_hd__mux2_1 abstract view
.subckt sky130_fd_sc_hd__mux2_1 A0 A1 S VGND VNB VPB VPWR X
.ends

* Black-box entry subcircuit for sky130_fd_sc_hd__decap_6 abstract view
.subckt sky130_fd_sc_hd__decap_6 VGND VNB VPB VPWR
.ends

* Black-box entry subcircuit for sky130_fd_sc_hd__tapvpwrvgnd_1 abstract view
.subckt sky130_fd_sc_hd__tapvpwrvgnd_1 VGND VPWR
.ends

* Black-box entry subcircuit for sky130_fd_sc_hd__decap_3 abstract view
.subckt sky130_fd_sc_hd__decap_3 VGND VNB VPB VPWR
.ends

* Black-box entry subcircuit for sky130_fd_sc_hd__decap_4 abstract view
.subckt sky130_fd_sc_hd__decap_4 VGND VNB VPB VPWR
.ends

* Black-box entry subcircuit for sky130_fd_sc_hd__clkbuf_8 abstract view
.subckt sky130_fd_sc_hd__clkbuf_8 A VGND VNB VPB VPWR X
.ends

* Black-box entry subcircuit for sky130_ef_sc_hd__decap_12 abstract view
.subckt sky130_ef_sc_hd__decap_12 VPWR VGND VPB VNB
.ends

* Black-box entry subcircuit for sky130_fd_sc_hd__fill_2 abstract view
.subckt sky130_fd_sc_hd__fill_2 VGND VNB VPB VPWR
.ends

* Black-box entry subcircuit for sky130_fd_sc_hd__dlygate4sd3_1 abstract view
.subckt sky130_fd_sc_hd__dlygate4sd3_1 A VGND VNB VPB VPWR X
.ends

* Black-box entry subcircuit for sky130_fd_sc_hd__dfxtp_1 abstract view
.subckt sky130_fd_sc_hd__dfxtp_1 CLK D VGND VNB VPB VPWR Q
.ends

* Black-box entry subcircuit for sky130_fd_sc_hd__buf_2 abstract view
.subckt sky130_fd_sc_hd__buf_2 A VGND VNB VPB VPWR X
.ends

* Black-box entry subcircuit for sky130_fd_sc_hd__fill_1 abstract view
.subckt sky130_fd_sc_hd__fill_1 VGND VNB VPB VPWR
.ends

* Black-box entry subcircuit for sky130_fd_sc_hd__a22o_1 abstract view
.subckt sky130_fd_sc_hd__a22o_1 A1 A2 B1 B2 VGND VNB VPB VPWR X
.ends

* Black-box entry subcircuit for sky130_fd_sc_hd__a21o_1 abstract view
.subckt sky130_fd_sc_hd__a21o_1 A1 A2 B1 VGND VNB VPB VPWR X
.ends

* Black-box entry subcircuit for sky130_fd_sc_hd__and2_1 abstract view
.subckt sky130_fd_sc_hd__and2_1 A B VGND VNB VPB VPWR X
.ends

* Black-box entry subcircuit for sky130_fd_sc_hd__o31a_1 abstract view
.subckt sky130_fd_sc_hd__o31a_1 A1 A2 A3 B1 VGND VNB VPB VPWR X
.ends

* Black-box entry subcircuit for sky130_fd_sc_hd__inv_2 abstract view
.subckt sky130_fd_sc_hd__inv_2 A VGND VNB VPB VPWR Y
.ends

* Black-box entry subcircuit for sky130_fd_sc_hd__o21a_1 abstract view
.subckt sky130_fd_sc_hd__o21a_1 A1 A2 B1 VGND VNB VPB VPWR X
.ends

* Black-box entry subcircuit for sky130_fd_sc_hd__clkinv_2 abstract view
.subckt sky130_fd_sc_hd__clkinv_2 A VGND VNB VPB VPWR Y
.ends

* Black-box entry subcircuit for sky130_fd_sc_hd__clkbuf_4 abstract view
.subckt sky130_fd_sc_hd__clkbuf_4 A VGND VNB VPB VPWR X
.ends

* Black-box entry subcircuit for sky130_fd_sc_hd__o221a_1 abstract view
.subckt sky130_fd_sc_hd__o221a_1 A1 A2 B1 B2 C1 VGND VNB VPB VPWR X
.ends

* Black-box entry subcircuit for sky130_fd_sc_hd__a221o_1 abstract view
.subckt sky130_fd_sc_hd__a221o_1 A1 A2 B1 B2 C1 VGND VNB VPB VPWR X
.ends

* Black-box entry subcircuit for sky130_fd_sc_hd__buf_4 abstract view
.subckt sky130_fd_sc_hd__buf_4 A VGND VNB VPB VPWR X
.ends

* Black-box entry subcircuit for sky130_fd_sc_hd__bufinv_16 abstract view
.subckt sky130_fd_sc_hd__bufinv_16 A VGND VNB VPB VPWR Y
.ends

* Black-box entry subcircuit for sky130_fd_sc_hd__clkbuf_16 abstract view
.subckt sky130_fd_sc_hd__clkbuf_16 A VGND VNB VPB VPWR X
.ends

* Black-box entry subcircuit for sky130_fd_sc_hd__clkbuf_2 abstract view
.subckt sky130_fd_sc_hd__clkbuf_2 A VGND VNB VPB VPWR X
.ends

* Black-box entry subcircuit for sky130_fd_sc_hd__o311a_1 abstract view
.subckt sky130_fd_sc_hd__o311a_1 A1 A2 A3 B1 C1 VGND VNB VPB VPWR X
.ends

* Black-box entry subcircuit for sky130_fd_sc_hd__clkbuf_1 abstract view
.subckt sky130_fd_sc_hd__clkbuf_1 A VGND VNB VPB VPWR X
.ends

* Black-box entry subcircuit for sky130_fd_sc_hd__buf_1 abstract view
.subckt sky130_fd_sc_hd__buf_1 A VGND VNB VPB VPWR X
.ends

* Black-box entry subcircuit for sky130_fd_sc_hd__and3b_1 abstract view
.subckt sky130_fd_sc_hd__and3b_1 A_N B C VGND VNB VPB VPWR X
.ends

* Black-box entry subcircuit for sky130_fd_sc_hd__and3_1 abstract view
.subckt sky130_fd_sc_hd__and3_1 A B C VGND VNB VPB VPWR X
.ends

* Black-box entry subcircuit for sky130_fd_sc_hd__nor2_1 abstract view
.subckt sky130_fd_sc_hd__nor2_1 A B VGND VNB VPB VPWR Y
.ends

* Black-box entry subcircuit for sky130_fd_sc_hd__or3b_1 abstract view
.subckt sky130_fd_sc_hd__or3b_1 A B C_N VGND VNB VPB VPWR X
.ends

* Black-box entry subcircuit for sky130_fd_sc_hd__and2b_1 abstract view
.subckt sky130_fd_sc_hd__and2b_1 A_N B VGND VNB VPB VPWR X
.ends

.subckt Data_Memory VGND VPWR clk mem_access_addr[0] mem_access_addr[10] mem_access_addr[11]
+ mem_access_addr[12] mem_access_addr[13] mem_access_addr[14] mem_access_addr[15]
+ mem_access_addr[1] mem_access_addr[2] mem_access_addr[3] mem_access_addr[4] mem_access_addr[5]
+ mem_access_addr[6] mem_access_addr[7] mem_access_addr[8] mem_access_addr[9] mem_read
+ mem_read_data[0] mem_read_data[10] mem_read_data[11] mem_read_data[12] mem_read_data[13]
+ mem_read_data[14] mem_read_data[15] mem_read_data[1] mem_read_data[2] mem_read_data[3]
+ mem_read_data[4] mem_read_data[5] mem_read_data[6] mem_read_data[7] mem_read_data[8]
+ mem_read_data[9] mem_write_data[0] mem_write_data[10] mem_write_data[11] mem_write_data[12]
+ mem_write_data[13] mem_write_data[14] mem_write_data[15] mem_write_data[1] mem_write_data[2]
+ mem_write_data[3] mem_write_data[4] mem_write_data[5] mem_write_data[6] mem_write_data[7]
+ mem_write_data[8] mem_write_data[9] mem_write_en
XFILLER_22_188 VGND VGND VPWR VPWR sky130_fd_sc_hd__decap_8
XFILLER_22_122 VGND VGND VPWR VPWR sky130_fd_sc_hd__decap_8
X_501_ net5 net62 VGND VGND VPWR VPWR _140_ sky130_fd_sc_hd__or2_1
X_432_ net6 net192 net45 VGND VGND VPWR VPWR _074_ sky130_fd_sc_hd__mux2_1
X_363_ net98 net20 net52 VGND VGND VPWR VPWR _009_ sky130_fd_sc_hd__mux2_1
X_294_ memory\[4\]\[9\] memory\[5\]\[9\] net70 VGND VGND VPWR VPWR _207_ sky130_fd_sc_hd__mux2_1
XFILLER_3_89 VGND VGND VPWR VPWR sky130_fd_sc_hd__decap_6
XTAP_TAPCELL_ROW_37_231 VGND VPWR sky130_fd_sc_hd__tapvpwrvgnd_1
XFILLER_27_225 VGND VGND VPWR VPWR sky130_fd_sc_hd__decap_3
XTAP_TAPCELL_ROW_6_107 VGND VPWR sky130_fd_sc_hd__tapvpwrvgnd_1
XFILLER_8_192 VGND VGND VPWR VPWR sky130_fd_sc_hd__decap_4
XFILLER_37_51 VGND VGND VPWR VPWR sky130_fd_sc_hd__decap_4
X_346_ memory\[0\]\[15\] memory\[1\]\[15\] net76 VGND VGND VPWR VPWR _253_ sky130_fd_sc_hd__mux2_1
X_415_ net93 net6 net47 VGND VGND VPWR VPWR _058_ sky130_fd_sc_hd__mux2_1
XTAP_TAPCELL_ROW_20_164 VGND VPWR sky130_fd_sc_hd__tapvpwrvgnd_1
Xclkbuf_4_12_0_clk clknet_0_clk VGND VGND VPWR VPWR clknet_4_12_0_clk sky130_fd_sc_hd__clkbuf_8
XFILLER_24_206 VGND VGND VPWR VPWR sky130_fd_sc_hd__decap_3
X_277_ memory\[6\]\[7\] memory\[7\]\[7\] net69 VGND VGND VPWR VPWR _192_ sky130_fd_sc_hd__mux2_1
X_329_ memory\[2\]\[13\] memory\[3\]\[13\] net74 VGND VGND VPWR VPWR _238_ sky130_fd_sc_hd__mux2_1
XFILLER_2_121 VGND VGND VPWR VPWR sky130_fd_sc_hd__decap_8
XFILLER_0_57 VPWR VGND VPWR VGND sky130_ef_sc_hd__decap_12
XFILLER_0_35 VPWR VGND VPWR VGND sky130_ef_sc_hd__decap_12
XPHY_EDGE_ROW_8_Left_47 VGND VGND VPWR VPWR sky130_fd_sc_hd__decap_3
XFILLER_34_96 VGND VGND VPWR VPWR sky130_fd_sc_hd__decap_6
XFILLER_34_85 VGND VGND VPWR VPWR sky130_fd_sc_hd__fill_2
XFILLER_34_74 VGND VGND VPWR VPWR sky130_fd_sc_hd__decap_8
XFILLER_22_7 VGND VGND VPWR VPWR sky130_fd_sc_hd__decap_6
XFILLER_37_161 VGND VGND VPWR VPWR sky130_fd_sc_hd__decap_6
Xhold74 memory\[3\]\[4\] VGND VGND VPWR VPWR net152 sky130_fd_sc_hd__dlygate4sd3_1
Xhold63 memory\[7\]\[4\] VGND VGND VPWR VPWR net141 sky130_fd_sc_hd__dlygate4sd3_1
X_594_ clknet_4_4_0_clk _044_ VGND VGND VPWR VPWR memory\[3\]\[12\] sky130_fd_sc_hd__dfxtp_1
Xhold30 memory\[4\]\[8\] VGND VGND VPWR VPWR net108 sky130_fd_sc_hd__dlygate4sd3_1
Xhold85 memory\[3\]\[13\] VGND VGND VPWR VPWR net163 sky130_fd_sc_hd__dlygate4sd3_1
X_663_ clknet_4_11_0_clk _113_ VGND VGND VPWR VPWR memory\[7\]\[1\] sky130_fd_sc_hd__dfxtp_1
Xhold41 memory\[2\]\[8\] VGND VGND VPWR VPWR net119 sky130_fd_sc_hd__dlygate4sd3_1
Xhold52 memory\[3\]\[9\] VGND VGND VPWR VPWR net130 sky130_fd_sc_hd__dlygate4sd3_1
Xhold96 memory\[0\]\[14\] VGND VGND VPWR VPWR net174 sky130_fd_sc_hd__dlygate4sd3_1
XFILLER_34_197 VGND VGND VPWR VPWR sky130_fd_sc_hd__decap_3
XFILLER_13_3 VGND VGND VPWR VPWR sky130_fd_sc_hd__decap_3
XFILLER_31_53 VGND VGND VPWR VPWR sky130_fd_sc_hd__decap_3
XFILLER_1_219 VGND VGND VPWR VPWR sky130_fd_sc_hd__decap_4
X_646_ clknet_4_7_0_clk _096_ VGND VGND VPWR VPWR memory\[1\]\[0\] sky130_fd_sc_hd__dfxtp_1
Xoutput31 net31 VGND VGND VPWR VPWR mem_read_data[3] sky130_fd_sc_hd__buf_2
XFILLER_16_186 VGND VGND VPWR VPWR sky130_fd_sc_hd__fill_1
X_577_ clknet_4_2_0_clk _027_ VGND VGND VPWR VPWR memory\[4\]\[11\] sky130_fd_sc_hd__dfxtp_1
XFILLER_22_145 VGND VGND VPWR VPWR sky130_fd_sc_hd__decap_3
XPHY_EDGE_ROW_37_Left_76 VGND VGND VPWR VPWR sky130_fd_sc_hd__decap_3
X_500_ net56 _136_ net55 _138_ VGND VGND VPWR VPWR _139_ sky130_fd_sc_hd__a22o_1
XFILLER_26_53 VGND VGND VPWR VPWR sky130_fd_sc_hd__decap_4
X_362_ net126 net19 net53 VGND VGND VPWR VPWR _008_ sky130_fd_sc_hd__mux2_1
X_293_ net54 _205_ net66 VGND VGND VPWR VPWR _206_ sky130_fd_sc_hd__a21o_1
X_431_ net20 net205 net44 VGND VGND VPWR VPWR _073_ sky130_fd_sc_hd__mux2_1
XFILLER_13_178 VGND VGND VPWR VPWR sky130_fd_sc_hd__decap_3
X_629_ clknet_4_13_0_clk _079_ VGND VGND VPWR VPWR memory\[0\]\[15\] sky130_fd_sc_hd__dfxtp_1
XTAP_TAPCELL_ROW_14_140 VGND VPWR sky130_fd_sc_hd__tapvpwrvgnd_1
XTAP_TAPCELL_ROW_6_108 VGND VPWR sky130_fd_sc_hd__tapvpwrvgnd_1
XTAP_TAPCELL_ROW_37_232 VGND VPWR sky130_fd_sc_hd__tapvpwrvgnd_1
XTAP_TAPCELL_ROW_20_165 VGND VPWR sky130_fd_sc_hd__tapvpwrvgnd_1
X_345_ net57 _251_ VGND VGND VPWR VPWR _252_ sky130_fd_sc_hd__and2_1
X_414_ net80 net20 net46 VGND VGND VPWR VPWR _057_ sky130_fd_sc_hd__mux2_1
X_276_ memory\[0\]\[7\] memory\[1\]\[7\] net70 VGND VGND VPWR VPWR _191_ sky130_fd_sc_hd__mux2_1
XFILLER_5_130 VGND VGND VPWR VPWR sky130_fd_sc_hd__fill_1
XPHY_EDGE_ROW_21_Right_21 VGND VGND VPWR VPWR sky130_fd_sc_hd__decap_3
XPHY_EDGE_ROW_12_Right_12 VGND VGND VPWR VPWR sky130_fd_sc_hd__decap_3
XPHY_EDGE_ROW_30_Right_30 VGND VGND VPWR VPWR sky130_fd_sc_hd__decap_3
X_328_ memory\[4\]\[13\] memory\[5\]\[13\] net77 VGND VGND VPWR VPWR _237_ sky130_fd_sc_hd__mux2_1
XFILLER_0_69 VPWR VGND VPWR VGND sky130_ef_sc_hd__decap_12
XFILLER_0_47 VGND VGND VPWR VPWR sky130_fd_sc_hd__decap_4
XFILLER_2_166 VPWR VGND VPWR VGND sky130_ef_sc_hd__decap_12
XPHY_EDGE_ROW_24_Left_63 VGND VGND VPWR VPWR sky130_fd_sc_hd__decap_3
XFILLER_34_42 VGND VGND VPWR VPWR sky130_fd_sc_hd__decap_3
XFILLER_7_225 VGND VGND VPWR VPWR sky130_fd_sc_hd__decap_3
Xclkbuf_4_11_0_clk clknet_0_clk VGND VGND VPWR VPWR clknet_4_11_0_clk sky130_fd_sc_hd__clkbuf_8
Xhold86 memory\[7\]\[0\] VGND VGND VPWR VPWR net164 sky130_fd_sc_hd__dlygate4sd3_1
X_662_ clknet_4_7_0_clk _112_ VGND VGND VPWR VPWR memory\[7\]\[0\] sky130_fd_sc_hd__dfxtp_1
Xhold53 memory\[4\]\[10\] VGND VGND VPWR VPWR net131 sky130_fd_sc_hd__dlygate4sd3_1
Xhold31 memory\[7\]\[5\] VGND VGND VPWR VPWR net109 sky130_fd_sc_hd__dlygate4sd3_1
Xhold97 memory\[3\]\[10\] VGND VGND VPWR VPWR net175 sky130_fd_sc_hd__dlygate4sd3_1
Xhold20 memory\[5\]\[9\] VGND VGND VPWR VPWR net98 sky130_fd_sc_hd__dlygate4sd3_1
XFILLER_20_22 VGND VGND VPWR VPWR sky130_fd_sc_hd__decap_6
Xhold64 memory\[5\]\[7\] VGND VGND VPWR VPWR net142 sky130_fd_sc_hd__dlygate4sd3_1
Xhold75 memory\[7\]\[1\] VGND VGND VPWR VPWR net153 sky130_fd_sc_hd__dlygate4sd3_1
Xhold42 memory\[4\]\[6\] VGND VGND VPWR VPWR net120 sky130_fd_sc_hd__dlygate4sd3_1
XFILLER_28_195 VGND VGND VPWR VPWR sky130_fd_sc_hd__fill_1
X_593_ clknet_4_3_0_clk _043_ VGND VGND VPWR VPWR memory\[3\]\[11\] sky130_fd_sc_hd__dfxtp_1
XFILLER_6_57 VGND VGND VPWR VPWR sky130_fd_sc_hd__fill_2
XFILLER_15_11 VGND VGND VPWR VPWR sky130_fd_sc_hd__fill_1
XPHY_EDGE_ROW_11_Left_50 VGND VGND VPWR VPWR sky130_fd_sc_hd__decap_3
XPHY_EDGE_ROW_6_Right_6 VGND VGND VPWR VPWR sky130_fd_sc_hd__decap_3
XFILLER_31_113 VPWR VGND VPWR VGND sky130_ef_sc_hd__decap_12
XFILLER_31_87 VGND VGND VPWR VPWR sky130_fd_sc_hd__decap_4
Xoutput32 net32 VGND VGND VPWR VPWR mem_read_data[4] sky130_fd_sc_hd__buf_2
X_645_ clknet_4_13_0_clk _095_ VGND VGND VPWR VPWR memory\[6\]\[15\] sky130_fd_sc_hd__dfxtp_1
X_576_ clknet_4_12_0_clk _026_ VGND VGND VPWR VPWR memory\[4\]\[10\] sky130_fd_sc_hd__dfxtp_1
XTAP_TAPCELL_ROW_23_174 VGND VPWR sky130_fd_sc_hd__tapvpwrvgnd_1
X_430_ net19 net204 net44 VGND VGND VPWR VPWR _072_ sky130_fd_sc_hd__mux2_1
X_292_ memory\[0\]\[9\] memory\[1\]\[9\] net69 VGND VGND VPWR VPWR _205_ sky130_fd_sc_hd__mux2_1
X_361_ net142 net18 net52 VGND VGND VPWR VPWR _007_ sky130_fd_sc_hd__mux2_1
XFILLER_36_227 VGND VGND VPWR VPWR sky130_fd_sc_hd__fill_1
X_559_ clknet_4_1_0_clk _009_ VGND VGND VPWR VPWR memory\[5\]\[9\] sky130_fd_sc_hd__dfxtp_1
XTAP_TAPCELL_ROW_14_141 VGND VPWR sky130_fd_sc_hd__tapvpwrvgnd_1
X_628_ clknet_4_0_0_clk _078_ VGND VGND VPWR VPWR memory\[0\]\[14\] sky130_fd_sc_hd__dfxtp_1
XTAP_TAPCELL_ROW_6_109 VGND VPWR sky130_fd_sc_hd__tapvpwrvgnd_1
XTAP_TAPCELL_ROW_37_233 VGND VPWR sky130_fd_sc_hd__tapvpwrvgnd_1
XFILLER_12_78 VGND VGND VPWR VPWR sky130_fd_sc_hd__decap_6
X_344_ memory\[2\]\[15\] memory\[3\]\[15\] net76 VGND VGND VPWR VPWR _251_ sky130_fd_sc_hd__mux2_1
X_413_ net119 net19 net47 VGND VGND VPWR VPWR _056_ sky130_fd_sc_hd__mux2_1
X_275_ net60 _189_ VGND VGND VPWR VPWR _190_ sky130_fd_sc_hd__and2_1
XTAP_TAPCELL_ROW_31_206 VGND VPWR sky130_fd_sc_hd__tapvpwrvgnd_1
XFILLER_23_55 VGND VGND VPWR VPWR sky130_fd_sc_hd__fill_1
XFILLER_0_15 VPWR VGND VPWR VGND sky130_ef_sc_hd__decap_12
XFILLER_2_178 VPWR VGND VPWR VGND sky130_ef_sc_hd__decap_12
XFILLER_3_3 VPWR VGND VPWR VGND sky130_ef_sc_hd__decap_12
XFILLER_36_3 VPWR VGND VPWR VGND sky130_ef_sc_hd__decap_12
X_327_ memory\[0\]\[13\] memory\[1\]\[13\] net77 VGND VGND VPWR VPWR _236_ sky130_fd_sc_hd__mux2_1
XTAP_TAPCELL_ROW_0_80 VGND VPWR sky130_fd_sc_hd__tapvpwrvgnd_1
XFILLER_9_57 VGND VGND VPWR VPWR sky130_fd_sc_hd__decap_4
Xhold43 memory\[1\]\[3\] VGND VGND VPWR VPWR net121 sky130_fd_sc_hd__dlygate4sd3_1
Xhold10 memory\[2\]\[15\] VGND VGND VPWR VPWR net88 sky130_fd_sc_hd__dlygate4sd3_1
Xhold87 memory\[0\]\[0\] VGND VGND VPWR VPWR net165 sky130_fd_sc_hd__dlygate4sd3_1
Xhold65 memory\[1\]\[4\] VGND VGND VPWR VPWR net143 sky130_fd_sc_hd__dlygate4sd3_1
Xhold54 memory\[4\]\[12\] VGND VGND VPWR VPWR net132 sky130_fd_sc_hd__dlygate4sd3_1
XFILLER_29_54 VGND VGND VPWR VPWR sky130_fd_sc_hd__fill_2
XFILLER_29_21 VGND VGND VPWR VPWR sky130_fd_sc_hd__fill_1
XFILLER_28_152 VGND VGND VPWR VPWR sky130_fd_sc_hd__decap_6
X_661_ clknet_4_13_0_clk _111_ VGND VGND VPWR VPWR memory\[1\]\[15\] sky130_fd_sc_hd__dfxtp_1
X_592_ clknet_4_14_0_clk _042_ VGND VGND VPWR VPWR memory\[3\]\[10\] sky130_fd_sc_hd__dfxtp_1
Xhold32 memory\[5\]\[1\] VGND VGND VPWR VPWR net110 sky130_fd_sc_hd__dlygate4sd3_1
Xhold21 memory\[3\]\[8\] VGND VGND VPWR VPWR net99 sky130_fd_sc_hd__dlygate4sd3_1
Xhold98 memory\[3\]\[1\] VGND VGND VPWR VPWR net176 sky130_fd_sc_hd__dlygate4sd3_1
Xhold76 memory\[3\]\[2\] VGND VGND VPWR VPWR net154 sky130_fd_sc_hd__dlygate4sd3_1
Xoutput22 net22 VGND VGND VPWR VPWR mem_read_data[0] sky130_fd_sc_hd__buf_2
XFILLER_25_166 VGND VGND VPWR VPWR sky130_fd_sc_hd__fill_2
Xoutput33 net33 VGND VGND VPWR VPWR mem_read_data[5] sky130_fd_sc_hd__buf_2
X_575_ clknet_4_1_0_clk _025_ VGND VGND VPWR VPWR memory\[4\]\[9\] sky130_fd_sc_hd__dfxtp_1
Xclkbuf_4_10_0_clk clknet_0_clk VGND VGND VPWR VPWR clknet_4_10_0_clk sky130_fd_sc_hd__clkbuf_8
XFILLER_0_221 VGND VGND VPWR VPWR sky130_fd_sc_hd__decap_3
X_644_ clknet_4_2_0_clk _094_ VGND VGND VPWR VPWR memory\[6\]\[14\] sky130_fd_sc_hd__dfxtp_1
XFILLER_31_125 VGND VGND VPWR VPWR sky130_fd_sc_hd__decap_8
XFILLER_22_114 VGND VGND VPWR VPWR sky130_fd_sc_hd__fill_1
XTAP_TAPCELL_ROW_17_150 VGND VPWR sky130_fd_sc_hd__tapvpwrvgnd_1
XFILLER_26_66 VGND VGND VPWR VPWR sky130_fd_sc_hd__fill_2
XTAP_TAPCELL_ROW_23_175 VGND VPWR sky130_fd_sc_hd__tapvpwrvgnd_1
X_291_ _199_ _202_ _203_ _204_ VGND VGND VPWR VPWR net36 sky130_fd_sc_hd__o31a_1
X_360_ net124 net17 net53 VGND VGND VPWR VPWR _006_ sky130_fd_sc_hd__mux2_1
XTAP_TAPCELL_ROW_9_118 VGND VPWR sky130_fd_sc_hd__tapvpwrvgnd_1
XFILLER_9_129 VGND VGND VPWR VPWR sky130_fd_sc_hd__decap_6
X_627_ clknet_4_14_0_clk _077_ VGND VGND VPWR VPWR memory\[0\]\[13\] sky130_fd_sc_hd__dfxtp_1
X_558_ clknet_4_12_0_clk _008_ VGND VGND VPWR VPWR memory\[5\]\[8\] sky130_fd_sc_hd__dfxtp_1
X_489_ net66 VGND VGND VPWR VPWR _128_ sky130_fd_sc_hd__inv_2
XFILLER_3_15 VPWR VGND VPWR VGND sky130_ef_sc_hd__decap_12
X_274_ memory\[4\]\[7\] memory\[5\]\[7\] net70 VGND VGND VPWR VPWR _189_ sky130_fd_sc_hd__mux2_1
X_343_ _245_ _248_ _249_ _250_ VGND VGND VPWR VPWR net27 sky130_fd_sc_hd__o31a_1
X_412_ net79 net18 net46 VGND VGND VPWR VPWR _055_ sky130_fd_sc_hd__mux2_1
XFILLER_4_91 VGND VGND VPWR VPWR sky130_fd_sc_hd__fill_1
XFILLER_0_27 VGND VGND VPWR VPWR sky130_fd_sc_hd__fill_1
XTAP_TAPCELL_ROW_31_207 VGND VPWR sky130_fd_sc_hd__tapvpwrvgnd_1
XFILLER_29_3 VGND VGND VPWR VPWR sky130_fd_sc_hd__fill_2
X_326_ memory\[6\]\[13\] memory\[7\]\[13\] net77 VGND VGND VPWR VPWR _235_ sky130_fd_sc_hd__mux2_1
XTAP_TAPCELL_ROW_0_81 VGND VPWR sky130_fd_sc_hd__tapvpwrvgnd_1
X_309_ memory\[6\]\[11\] memory\[7\]\[11\] net69 VGND VGND VPWR VPWR _220_ sky130_fd_sc_hd__mux2_1
Xhold11 memory\[6\]\[0\] VGND VGND VPWR VPWR net89 sky130_fd_sc_hd__dlygate4sd3_1
Xhold33 memory\[5\]\[0\] VGND VGND VPWR VPWR net111 sky130_fd_sc_hd__dlygate4sd3_1
Xhold66 memory\[3\]\[12\] VGND VGND VPWR VPWR net144 sky130_fd_sc_hd__dlygate4sd3_1
Xhold88 memory\[1\]\[13\] VGND VGND VPWR VPWR net166 sky130_fd_sc_hd__dlygate4sd3_1
Xhold55 memory\[7\]\[8\] VGND VGND VPWR VPWR net133 sky130_fd_sc_hd__dlygate4sd3_1
X_591_ clknet_4_1_0_clk _041_ VGND VGND VPWR VPWR memory\[3\]\[9\] sky130_fd_sc_hd__dfxtp_1
Xhold77 memory\[7\]\[2\] VGND VGND VPWR VPWR net155 sky130_fd_sc_hd__dlygate4sd3_1
Xhold99 memory\[7\]\[6\] VGND VGND VPWR VPWR net177 sky130_fd_sc_hd__dlygate4sd3_1
XFILLER_6_15 VPWR VGND VPWR VGND sky130_ef_sc_hd__decap_12
Xhold22 memory\[1\]\[14\] VGND VGND VPWR VPWR net100 sky130_fd_sc_hd__dlygate4sd3_1
Xhold44 memory\[5\]\[11\] VGND VGND VPWR VPWR net122 sky130_fd_sc_hd__dlygate4sd3_1
X_660_ clknet_4_0_0_clk _110_ VGND VGND VPWR VPWR memory\[1\]\[14\] sky130_fd_sc_hd__dfxtp_1
XFILLER_19_153 VGND VGND VPWR VPWR sky130_fd_sc_hd__decap_4
Xoutput23 net23 VGND VGND VPWR VPWR mem_read_data[10] sky130_fd_sc_hd__buf_2
XFILLER_25_123 VGND VGND VPWR VPWR sky130_fd_sc_hd__fill_2
XFILLER_25_101 VGND VGND VPWR VPWR sky130_fd_sc_hd__fill_2
XFILLER_15_57 VGND VGND VPWR VPWR sky130_fd_sc_hd__decap_4
Xoutput34 net34 VGND VGND VPWR VPWR mem_read_data[6] sky130_fd_sc_hd__buf_2
X_643_ clknet_4_14_0_clk _093_ VGND VGND VPWR VPWR memory\[6\]\[13\] sky130_fd_sc_hd__dfxtp_1
X_574_ clknet_4_12_0_clk _024_ VGND VGND VPWR VPWR memory\[4\]\[8\] sky130_fd_sc_hd__dfxtp_1
XTAP_TAPCELL_ROW_17_151 VGND VPWR sky130_fd_sc_hd__tapvpwrvgnd_1
XTAP_TAPCELL_ROW_9_119 VGND VPWR sky130_fd_sc_hd__tapvpwrvgnd_1
X_488_ net97 net11 net39 VGND VGND VPWR VPWR _127_ sky130_fd_sc_hd__mux2_1
X_626_ clknet_4_6_0_clk _076_ VGND VGND VPWR VPWR memory\[0\]\[12\] sky130_fd_sc_hd__dfxtp_1
XTAP_TAPCELL_ROW_23_176 VGND VPWR sky130_fd_sc_hd__tapvpwrvgnd_1
X_290_ net63 net19 net64 VGND VGND VPWR VPWR _204_ sky130_fd_sc_hd__o21a_1
XFILLER_13_126 VGND VGND VPWR VPWR sky130_fd_sc_hd__decap_3
X_557_ clknet_4_1_0_clk _007_ VGND VGND VPWR VPWR memory\[5\]\[7\] sky130_fd_sc_hd__dfxtp_1
XFILLER_3_27 VGND VGND VPWR VPWR sky130_fd_sc_hd__fill_1
XFILLER_10_129 VGND VGND VPWR VPWR sky130_fd_sc_hd__fill_2
XFILLER_8_174 VGND VGND VPWR VPWR sky130_fd_sc_hd__fill_2
XFILLER_37_55 VGND VGND VPWR VPWR sky130_fd_sc_hd__fill_1
X_342_ net62 net10 net64 VGND VGND VPWR VPWR _250_ sky130_fd_sc_hd__o21a_1
XFILLER_5_111 VGND VGND VPWR VPWR sky130_fd_sc_hd__fill_1
XFILLER_5_122 VGND VGND VPWR VPWR sky130_fd_sc_hd__decap_8
X_273_ _182_ _186_ _187_ _188_ VGND VGND VPWR VPWR net34 sky130_fd_sc_hd__o31a_1
X_411_ net179 net17 net47 VGND VGND VPWR VPWR _054_ sky130_fd_sc_hd__mux2_1
X_609_ clknet_4_8_0_clk _059_ VGND VGND VPWR VPWR memory\[2\]\[11\] sky130_fd_sc_hd__dfxtp_1
XFILLER_23_57 VGND VGND VPWR VPWR sky130_fd_sc_hd__decap_6
XTAP_TAPCELL_ROW_31_208 VGND VPWR sky130_fd_sc_hd__tapvpwrvgnd_1
X_325_ _229_ _232_ _233_ _234_ VGND VGND VPWR VPWR net25 sky130_fd_sc_hd__o31a_1
XTAP_TAPCELL_ROW_0_82 VGND VPWR sky130_fd_sc_hd__tapvpwrvgnd_1
XPHY_EDGE_ROW_28_Left_67 VGND VGND VPWR VPWR sky130_fd_sc_hd__decap_3
Xclkload0 clknet_4_0_0_clk VGND VGND VPWR VPWR clkload0/Y sky130_fd_sc_hd__clkinv_2
X_308_ memory\[4\]\[11\] memory\[5\]\[11\] net69 VGND VGND VPWR VPWR _219_ sky130_fd_sc_hd__mux2_1
Xhold45 memory\[3\]\[0\] VGND VGND VPWR VPWR net123 sky130_fd_sc_hd__dlygate4sd3_1
XFILLER_28_176 VGND VGND VPWR VPWR sky130_fd_sc_hd__decap_6
Xhold12 memory\[4\]\[15\] VGND VGND VPWR VPWR net90 sky130_fd_sc_hd__dlygate4sd3_1
Xhold56 memory\[4\]\[0\] VGND VGND VPWR VPWR net134 sky130_fd_sc_hd__dlygate4sd3_1
Xhold34 memory\[2\]\[13\] VGND VGND VPWR VPWR net112 sky130_fd_sc_hd__dlygate4sd3_1
Xhold23 memory\[4\]\[13\] VGND VGND VPWR VPWR net101 sky130_fd_sc_hd__dlygate4sd3_1
Xhold67 memory\[2\]\[1\] VGND VGND VPWR VPWR net145 sky130_fd_sc_hd__dlygate4sd3_1
X_590_ clknet_4_9_0_clk _040_ VGND VGND VPWR VPWR memory\[3\]\[8\] sky130_fd_sc_hd__dfxtp_1
Xhold78 memory\[6\]\[9\] VGND VGND VPWR VPWR net156 sky130_fd_sc_hd__dlygate4sd3_1
Xhold89 memory\[1\]\[11\] VGND VGND VPWR VPWR net167 sky130_fd_sc_hd__dlygate4sd3_1
XFILLER_6_27 VGND VGND VPWR VPWR sky130_fd_sc_hd__fill_1
XFILLER_25_113 VGND VGND VPWR VPWR sky130_fd_sc_hd__fill_2
Xoutput35 net35 VGND VGND VPWR VPWR mem_read_data[7] sky130_fd_sc_hd__buf_2
Xoutput24 net24 VGND VGND VPWR VPWR mem_read_data[11] sky130_fd_sc_hd__buf_2
XPHY_EDGE_ROW_28_Right_28 VGND VGND VPWR VPWR sky130_fd_sc_hd__decap_3
X_642_ clknet_4_7_0_clk _092_ VGND VGND VPWR VPWR memory\[6\]\[12\] sky130_fd_sc_hd__dfxtp_1
XPHY_EDGE_ROW_19_Right_19 VGND VGND VPWR VPWR sky130_fd_sc_hd__decap_3
X_573_ clknet_4_1_0_clk _023_ VGND VGND VPWR VPWR memory\[4\]\[7\] sky130_fd_sc_hd__dfxtp_1
XPHY_EDGE_ROW_37_Right_37 VGND VGND VPWR VPWR sky130_fd_sc_hd__decap_3
XTAP_TAPCELL_ROW_17_152 VGND VPWR sky130_fd_sc_hd__tapvpwrvgnd_1
XPHY_EDGE_ROW_15_Left_54 VGND VGND VPWR VPWR sky130_fd_sc_hd__decap_3
XTAP_TAPCELL_ROW_23_177 VGND VPWR sky130_fd_sc_hd__tapvpwrvgnd_1
X_625_ clknet_4_3_0_clk _075_ VGND VGND VPWR VPWR memory\[0\]\[11\] sky130_fd_sc_hd__dfxtp_1
XFILLER_27_219 VGND VGND VPWR VPWR sky130_fd_sc_hd__decap_4
X_487_ net146 net10 net38 VGND VGND VPWR VPWR _126_ sky130_fd_sc_hd__mux2_1
X_556_ clknet_4_8_0_clk _006_ VGND VGND VPWR VPWR memory\[5\]\[6\] sky130_fd_sc_hd__dfxtp_1
Xhold120 memory\[5\]\[15\] VGND VGND VPWR VPWR net198 sky130_fd_sc_hd__dlygate4sd3_1
X_410_ net127 net16 net46 VGND VGND VPWR VPWR _053_ sky130_fd_sc_hd__mux2_1
XFILLER_12_26 VGND VGND VPWR VPWR sky130_fd_sc_hd__fill_2
XPHY_EDGE_ROW_0_Left_39 VGND VGND VPWR VPWR sky130_fd_sc_hd__decap_3
X_341_ net56 _246_ net66 VGND VGND VPWR VPWR _249_ sky130_fd_sc_hd__a21o_1
X_272_ net62 net17 net64 VGND VGND VPWR VPWR _188_ sky130_fd_sc_hd__o21a_1
X_608_ clknet_4_14_0_clk _058_ VGND VGND VPWR VPWR memory\[2\]\[10\] sky130_fd_sc_hd__dfxtp_1
X_539_ memory\[2\]\[5\] memory\[3\]\[5\] net71 VGND VGND VPWR VPWR _173_ sky130_fd_sc_hd__mux2_1
XFILLER_5_167 VGND VGND VPWR VPWR sky130_fd_sc_hd__fill_1
XFILLER_23_36 VGND VGND VPWR VPWR sky130_fd_sc_hd__fill_1
XTAP_TAPCELL_ROW_31_209 VGND VPWR sky130_fd_sc_hd__tapvpwrvgnd_1
X_324_ net62 net8 net64 VGND VGND VPWR VPWR _234_ sky130_fd_sc_hd__o21a_1
Xfanout70 net73 VGND VGND VPWR VPWR net70 sky130_fd_sc_hd__clkbuf_4
XFILLER_0_29 VGND VGND VPWR VPWR sky130_fd_sc_hd__fill_2
XFILLER_1_181 VGND VGND VPWR VPWR sky130_fd_sc_hd__decap_8
XTAP_TAPCELL_ROW_0_83 VGND VPWR sky130_fd_sc_hd__tapvpwrvgnd_1
Xclkload1 clknet_4_1_0_clk VGND VGND VPWR VPWR clkload1/Y sky130_fd_sc_hd__clkinv_2
XFILLER_11_225 VGND VGND VPWR VPWR sky130_fd_sc_hd__decap_3
XFILLER_1_3 VPWR VGND VPWR VGND sky130_ef_sc_hd__decap_12
XPHY_EDGE_ROW_3_Left_42 VGND VGND VPWR VPWR sky130_fd_sc_hd__decap_3
XFILLER_37_111 VGND VGND VPWR VPWR sky130_fd_sc_hd__fill_1
XFILLER_34_3 VGND VGND VPWR VPWR sky130_fd_sc_hd__decap_8
X_307_ net63 net6 _217_ _218_ net65 VGND VGND VPWR VPWR net23 sky130_fd_sc_hd__o221a_1
XFILLER_1_83 VGND VGND VPWR VPWR sky130_fd_sc_hd__decap_4
Xhold24 memory\[2\]\[4\] VGND VGND VPWR VPWR net102 sky130_fd_sc_hd__dlygate4sd3_1
XFILLER_29_57 VGND VGND VPWR VPWR sky130_fd_sc_hd__decap_3
Xhold35 memory\[6\]\[12\] VGND VGND VPWR VPWR net113 sky130_fd_sc_hd__dlygate4sd3_1
Xhold13 memory\[4\]\[5\] VGND VGND VPWR VPWR net91 sky130_fd_sc_hd__dlygate4sd3_1
XFILLER_20_37 VGND VGND VPWR VPWR sky130_fd_sc_hd__decap_3
Xhold79 memory\[6\]\[7\] VGND VGND VPWR VPWR net157 sky130_fd_sc_hd__dlygate4sd3_1
Xhold68 memory\[7\]\[14\] VGND VGND VPWR VPWR net146 sky130_fd_sc_hd__dlygate4sd3_1
Xhold57 memory\[7\]\[11\] VGND VGND VPWR VPWR net135 sky130_fd_sc_hd__dlygate4sd3_1
Xhold46 memory\[5\]\[6\] VGND VGND VPWR VPWR net124 sky130_fd_sc_hd__dlygate4sd3_1
XFILLER_34_158 VPWR VGND VPWR VGND sky130_ef_sc_hd__decap_12
XFILLER_19_166 VGND VGND VPWR VPWR sky130_fd_sc_hd__fill_2
XFILLER_25_158 VGND VGND VPWR VPWR sky130_fd_sc_hd__decap_8
XFILLER_15_37 VPWR VGND VPWR VGND sky130_ef_sc_hd__decap_12
XTAP_TAPCELL_ROW_26_186 VGND VPWR sky130_fd_sc_hd__tapvpwrvgnd_1
Xoutput25 net25 VGND VGND VPWR VPWR mem_read_data[12] sky130_fd_sc_hd__buf_2
Xoutput36 net36 VGND VGND VPWR VPWR mem_read_data[8] sky130_fd_sc_hd__buf_2
X_641_ clknet_4_2_0_clk _091_ VGND VGND VPWR VPWR memory\[6\]\[11\] sky130_fd_sc_hd__dfxtp_1
X_572_ clknet_4_10_0_clk _022_ VGND VGND VPWR VPWR memory\[4\]\[6\] sky130_fd_sc_hd__dfxtp_1
XFILLER_22_106 VGND VGND VPWR VPWR sky130_fd_sc_hd__decap_8
XTAP_TAPCELL_ROW_17_153 VGND VPWR sky130_fd_sc_hd__tapvpwrvgnd_1
XPHY_EDGE_ROW_32_Left_71 VGND VGND VPWR VPWR sky130_fd_sc_hd__decap_3
XFILLER_27_209 VGND VGND VPWR VPWR sky130_fd_sc_hd__fill_1
X_624_ clknet_4_15_0_clk _074_ VGND VGND VPWR VPWR memory\[0\]\[10\] sky130_fd_sc_hd__dfxtp_1
X_486_ net139 net9 net39 VGND VGND VPWR VPWR _125_ sky130_fd_sc_hd__mux2_1
X_555_ clknet_4_4_0_clk _005_ VGND VGND VPWR VPWR memory\[5\]\[5\] sky130_fd_sc_hd__dfxtp_1
XTAP_TAPCELL_ROW_3_94 VGND VPWR sky130_fd_sc_hd__tapvpwrvgnd_1
XFILLER_37_57 VPWR VGND VPWR VGND sky130_ef_sc_hd__decap_12
Xhold121 memory\[5\]\[4\] VGND VGND VPWR VPWR net199 sky130_fd_sc_hd__dlygate4sd3_1
Xhold110 memory\[0\]\[1\] VGND VGND VPWR VPWR net188 sky130_fd_sc_hd__dlygate4sd3_1
XTAP_TAPCELL_ROW_5_102 VGND VPWR sky130_fd_sc_hd__tapvpwrvgnd_1
XTAP_TAPCELL_ROW_34_218 VGND VPWR sky130_fd_sc_hd__tapvpwrvgnd_1
X_538_ _166_ _170_ _171_ _172_ VGND VGND VPWR VPWR net32 sky130_fd_sc_hd__o31a_1
X_607_ clknet_4_1_0_clk _057_ VGND VGND VPWR VPWR memory\[2\]\[9\] sky130_fd_sc_hd__dfxtp_1
XTAP_TAPCELL_ROW_11_126 VGND VPWR sky130_fd_sc_hd__tapvpwrvgnd_1
X_271_ net61 _183_ _185_ net58 VGND VGND VPWR VPWR _187_ sky130_fd_sc_hd__a22o_1
X_340_ net60 _243_ _247_ net54 VGND VGND VPWR VPWR _248_ sky130_fd_sc_hd__a22o_1
X_469_ net166 net9 net40 VGND VGND VPWR VPWR _109_ sky130_fd_sc_hd__mux2_1
XFILLER_23_15 VGND VGND VPWR VPWR sky130_fd_sc_hd__decap_4
XFILLER_4_83 VGND VGND VPWR VPWR sky130_fd_sc_hd__fill_1
Xfanout71 net73 VGND VGND VPWR VPWR net71 sky130_fd_sc_hd__clkbuf_4
X_323_ net58 _230_ net67 VGND VGND VPWR VPWR _233_ sky130_fd_sc_hd__a21o_1
Xfanout60 _129_ VGND VGND VPWR VPWR net60 sky130_fd_sc_hd__buf_2
XTAP_TAPCELL_ROW_0_84 VGND VPWR sky130_fd_sc_hd__tapvpwrvgnd_1
XFILLER_1_160 VGND VGND VPWR VPWR sky130_fd_sc_hd__decap_8
Xclkload2 clknet_4_2_0_clk VGND VGND VPWR VPWR clkload2/X sky130_fd_sc_hd__clkbuf_8
X_306_ net55 _213_ _216_ net57 net67 VGND VGND VPWR VPWR _218_ sky130_fd_sc_hd__a221o_1
XFILLER_37_167 VGND VGND VPWR VPWR sky130_fd_sc_hd__fill_1
Xhold69 memory\[2\]\[3\] VGND VGND VPWR VPWR net147 sky130_fd_sc_hd__dlygate4sd3_1
Xhold36 memory\[3\]\[5\] VGND VGND VPWR VPWR net114 sky130_fd_sc_hd__dlygate4sd3_1
Xhold25 memory\[6\]\[13\] VGND VGND VPWR VPWR net103 sky130_fd_sc_hd__dlygate4sd3_1
Xhold47 memory\[5\]\[13\] VGND VGND VPWR VPWR net125 sky130_fd_sc_hd__dlygate4sd3_1
Xhold58 memory\[1\]\[7\] VGND VGND VPWR VPWR net136 sky130_fd_sc_hd__dlygate4sd3_1
XFILLER_1_73 VGND VGND VPWR VPWR sky130_fd_sc_hd__fill_2
XFILLER_1_51 VGND VGND VPWR VPWR sky130_fd_sc_hd__decap_4
Xhold14 memory\[4\]\[2\] VGND VGND VPWR VPWR net92 sky130_fd_sc_hd__dlygate4sd3_1
XFILLER_10_82 VGND VGND VPWR VPWR sky130_fd_sc_hd__fill_2
XFILLER_6_29 VGND VGND VPWR VPWR sky130_fd_sc_hd__decap_4
XFILLER_31_107 VGND VGND VPWR VPWR sky130_fd_sc_hd__decap_4
X_640_ clknet_4_13_0_clk _090_ VGND VGND VPWR VPWR memory\[6\]\[10\] sky130_fd_sc_hd__dfxtp_1
XTAP_TAPCELL_ROW_26_187 VGND VPWR sky130_fd_sc_hd__tapvpwrvgnd_1
Xoutput26 net26 VGND VGND VPWR VPWR mem_read_data[13] sky130_fd_sc_hd__buf_2
X_571_ clknet_4_4_0_clk _021_ VGND VGND VPWR VPWR memory\[4\]\[5\] sky130_fd_sc_hd__dfxtp_1
Xoutput37 net37 VGND VGND VPWR VPWR mem_read_data[9] sky130_fd_sc_hd__buf_2
XPHY_EDGE_ROW_1_Right_1 VGND VGND VPWR VPWR sky130_fd_sc_hd__decap_3
XFILLER_0_225 VGND VGND VPWR VPWR sky130_fd_sc_hd__decap_3
XFILLER_30_195 VGND VGND VPWR VPWR sky130_fd_sc_hd__fill_1
XFILLER_13_118 VGND VGND VPWR VPWR sky130_fd_sc_hd__decap_8
X_554_ clknet_4_5_0_clk _004_ VGND VGND VPWR VPWR memory\[5\]\[4\] sky130_fd_sc_hd__dfxtp_1
X_485_ net196 net8 net39 VGND VGND VPWR VPWR _124_ sky130_fd_sc_hd__mux2_1
X_623_ clknet_4_3_0_clk _073_ VGND VGND VPWR VPWR memory\[0\]\[9\] sky130_fd_sc_hd__dfxtp_1
XTAP_TAPCELL_ROW_3_95 VGND VPWR sky130_fd_sc_hd__tapvpwrvgnd_1