*SPEF "ieee 1481-1999"
*DESIGN "Data_Memory"
*DATE "14:32:18 Monday November 17, 2025"
*VENDOR "The OpenROAD Project"
*PROGRAM "OpenROAD"
*VERSION "edf00dff99f6c40d67a30c0e22a8191c5d2ed9d6"
*DESIGN_FLOW "NAME_SCOPE LOCAL" "PIN_CAP NONE"
*DIVIDER /
*DELIMITER :
*BUS_DELIMITER []
*T_UNIT 1 NS
*C_UNIT 1 PF
*R_UNIT 1 OHM
*L_UNIT 1 HENRY

*NAME_MAP
*3 clk
*4 mem_access_addr[0]
*5 mem_access_addr[10]
*6 mem_access_addr[11]
*7 mem_access_addr[12]
*8 mem_access_addr[13]
*9 mem_access_addr[14]
*10 mem_access_addr[15]
*11 mem_access_addr[1]
*12 mem_access_addr[2]
*13 mem_access_addr[3]
*14 mem_access_addr[4]
*15 mem_access_addr[5]
*16 mem_access_addr[6]
*17 mem_access_addr[7]
*18 mem_access_addr[8]
*19 mem_access_addr[9]
*20 mem_read
*21 mem_read_data[0]
*22 mem_read_data[10]
*23 mem_read_data[11]
*24 mem_read_data[12]
*25 mem_read_data[13]
*26 mem_read_data[14]
*27 mem_read_data[15]
*28 mem_read_data[1]
*29 mem_read_data[2]
*30 mem_read_data[3]
*31 mem_read_data[4]
*32 mem_read_data[5]
*33 mem_read_data[6]
*34 mem_read_data[7]
*35 mem_read_data[8]
*36 mem_read_data[9]
*37 mem_write_data[0]
*38 mem_write_data[10]
*39 mem_write_data[11]
*40 mem_write_data[12]
*41 mem_write_data[13]
*42 mem_write_data[14]
*43 mem_write_data[15]
*44 mem_write_data[1]
*45 mem_write_data[2]
*46 mem_write_data[3]
*47 mem_write_data[4]
*48 mem_write_data[5]
*49 mem_write_data[6]
*50 mem_write_data[7]
*51 mem_write_data[8]
*52 mem_write_data[9]
*53 mem_write_en
*54 _000_
*55 _001_
*56 _002_
*57 _003_
*58 _004_
*59 _005_
*60 _006_
*61 _007_
*62 _008_
*63 _009_
*64 _010_
*65 _011_
*66 _012_
*67 _013_
*68 _014_
*69 _015_
*70 _016_
*71 _017_
*72 _018_
*73 _019_
*74 _020_
*75 _021_
*76 _022_
*77 _023_
*78 _024_
*79 _025_
*80 _026_
*81 _027_
*82 _028_
*83 _029_
*84 _030_
*85 _031_
*86 _032_
*87 _033_
*88 _034_
*89 _035_
*90 _036_
*91 _037_
*92 _038_
*93 _039_
*94 _040_
*95 _041_
*96 _042_
*97 _043_
*98 _044_
*99 _045_
*100 _046_
*101 _047_
*102 _048_
*103 _049_
*104 _050_
*105 _051_
*106 _052_
*107 _053_
*108 _054_
*109 _055_
*110 _056_
*111 _057_
*112 _058_
*113 _059_
*114 _060_
*115 _061_
*116 _062_
*117 _063_
*118 _064_
*119 _065_
*120 _066_
*121 _067_
*122 _068_
*123 _069_
*124 _070_
*125 _071_
*126 _072_
*127 _073_
*128 _074_
*129 _075_
*130 _076_
*131 _077_
*132 _078_
*133 _079_
*134 _080_
*135 _081_
*136 _082_
*137 _083_
*138 _084_
*139 _085_
*140 _086_
*141 _087_
*142 _088_
*143 _089_
*144 _090_
*145 _091_
*146 _092_
*147 _093_
*148 _094_
*149 _095_
*150 _096_
*151 _097_
*152 _098_
*153 _099_
*154 _100_
*155 _101_
*156 _102_
*157 _103_
*158 _104_
*159 _105_
*160 _106_
*161 _107_
*162 _108_
*163 _109_
*164 _110_
*165 _111_
*166 _112_
*167 _113_
*168 _114_
*169 _115_
*170 _116_
*171 _117_
*172 _118_
*173 _119_
*174 _120_
*175 _121_
*176 _122_
*177 _123_
*178 _124_
*179 _125_
*180 _126_
*181 _127_
*182 _128_
*183 _129_
*184 _130_
*185 _131_
*186 _132_
*187 _133_
*188 _134_
*189 _135_
*190 _136_
*191 _137_
*192 _138_
*193 _139_
*194 _140_
*195 _141_
*196 _142_
*197 _143_
*198 _144_
*199 _145_
*200 _146_
*201 _147_
*202 _148_
*203 _149_
*204 _150_
*205 _151_
*206 _152_
*207 _153_
*208 _154_
*209 _155_
*210 _156_
*211 _157_
*212 _158_
*213 _159_
*214 _160_
*215 _161_
*216 _162_
*217 _163_
*218 _164_
*219 _165_
*220 _166_
*221 _167_
*222 _168_
*223 _169_
*224 _170_
*225 _171_
*226 _172_
*227 _173_
*228 _174_
*229 _175_
*230 _176_
*231 _177_
*232 _178_
*233 _179_
*234 _180_
*235 _181_
*236 _182_
*237 _183_
*238 _184_
*239 _185_
*240 _186_
*241 _187_
*242 _188_
*243 _189_
*244 _190_
*245 _191_
*246 _192_
*247 _193_
*248 _194_
*249 _195_
*250 _196_
*251 _197_
*252 _198_
*253 _199_
*254 _200_
*255 _201_
*256 _202_
*257 _203_
*258 _204_
*259 _205_
*260 _206_
*261 _207_
*262 _208_
*263 _209_
*264 _210_
*265 _211_
*266 _212_
*267 _213_
*268 _214_
*269 _215_
*270 _216_
*271 _217_
*272 _218_
*273 _219_
*274 _220_
*275 _221_
*276 _222_
*277 _223_
*278 _224_
*279 _225_
*280 _226_
*281 _227_
*282 _228_
*283 _229_
*284 _230_
*285 _231_
*286 _232_
*287 _233_
*288 _234_
*289 _235_
*290 _236_
*291 _237_
*292 _238_
*293 _239_
*294 _240_
*295 _241_
*296 _242_
*297 _243_
*298 _244_
*299 _245_
*300 _246_
*301 _247_
*302 _248_
*303 _249_
*304 _250_
*305 _251_
*306 _252_
*307 _253_
*308 _254_
*309 _255_
*310 _256_
*311 _257_
*312 _258_
*313 _259_
*314 _260_
*315 _261_
*316 _262_
*317 _263_
*318 _264_
*319 _265_
*320 _266_
*321 clknet_0_clk
*322 clknet_4_0_0_clk
*323 clknet_4_10_0_clk
*324 clknet_4_11_0_clk
*325 clknet_4_12_0_clk
*326 clknet_4_13_0_clk
*327 clknet_4_14_0_clk
*328 clknet_4_15_0_clk
*329 clknet_4_1_0_clk
*330 clknet_4_2_0_clk
*331 clknet_4_3_0_clk
*332 clknet_4_4_0_clk
*333 clknet_4_5_0_clk
*334 clknet_4_6_0_clk
*335 clknet_4_7_0_clk
*336 clknet_4_8_0_clk
*337 clknet_4_9_0_clk
*338 memory\[0\]\[0\]
*339 memory\[0\]\[10\]
*340 memory\[0\]\[11\]
*341 memory\[0\]\[12\]
*342 memory\[0\]\[13\]
*343 memory\[0\]\[14\]
*344 memory\[0\]\[15\]
*345 memory\[0\]\[1\]
*346 memory\[0\]\[2\]
*347 memory\[0\]\[3\]
*348 memory\[0\]\[4\]
*349 memory\[0\]\[5\]
*350 memory\[0\]\[6\]
*351 memory\[0\]\[7\]
*352 memory\[0\]\[8\]
*353 memory\[0\]\[9\]
*354 memory\[1\]\[0\]
*355 memory\[1\]\[10\]
*356 memory\[1\]\[11\]
*357 memory\[1\]\[12\]
*358 memory\[1\]\[13\]
*359 memory\[1\]\[14\]
*360 memory\[1\]\[15\]
*361 memory\[1\]\[1\]
*362 memory\[1\]\[2\]
*363 memory\[1\]\[3\]
*364 memory\[1\]\[4\]
*365 memory\[1\]\[5\]
*366 memory\[1\]\[6\]
*367 memory\[1\]\[7\]
*368 memory\[1\]\[8\]
*369 memory\[1\]\[9\]
*370 memory\[2\]\[0\]
*371 memory\[2\]\[10\]
*372 memory\[2\]\[11\]
*373 memory\[2\]\[12\]
*374 memory\[2\]\[13\]
*375 memory\[2\]\[14\]
*376 memory\[2\]\[15\]
*377 memory\[2\]\[1\]
*378 memory\[2\]\[2\]
*379 memory\[2\]\[3\]
*380 memory\[2\]\[4\]
*381 memory\[2\]\[5\]
*382 memory\[2\]\[6\]
*383 memory\[2\]\[7\]
*384 memory\[2\]\[8\]
*385 memory\[2\]\[9\]
*386 memory\[3\]\[0\]
*387 memory\[3\]\[10\]
*388 memory\[3\]\[11\]
*389 memory\[3\]\[12\]
*390 memory\[3\]\[13\]
*391 memory\[3\]\[14\]
*392 memory\[3\]\[15\]
*393 memory\[3\]\[1\]
*394 memory\[3\]\[2\]
*395 memory\[3\]\[3\]
*396 memory\[3\]\[4\]
*397 memory\[3\]\[5\]
*398 memory\[3\]\[6\]
*399 memory\[3\]\[7\]
*400 memory\[3\]\[8\]
*401 memory\[3\]\[9\]
*402 memory\[4\]\[0\]
*403 memory\[4\]\[10\]
*404 memory\[4\]\[11\]
*405 memory\[4\]\[12\]
*406 memory\[4\]\[13\]
*407 memory\[4\]\[14\]
*408 memory\[4\]\[15\]
*409 memory\[4\]\[1\]
*410 memory\[4\]\[2\]
*411 memory\[4\]\[3\]
*412 memory\[4\]\[4\]
*413 memory\[4\]\[5\]
*414 memory\[4\]\[6\]
*415 memory\[4\]\[7\]
*416 memory\[4\]\[8\]
*417 memory\[4\]\[9\]
*418 memory\[5\]\[0\]
*419 memory\[5\]\[10\]
*420 memory\[5\]\[11\]
*421 memory\[5\]\[12\]
*422 memory\[5\]\[13\]
*423 memory\[5\]\[14\]
*424 memory\[5\]\[15\]
*425 memory\[5\]\[1\]
*426 memory\[5\]\[2\]
*427 memory\[5\]\[3\]
*428 memory\[5\]\[4\]
*429 memory\[5\]\[5\]
*430 memory\[5\]\[6\]
*431 memory\[5\]\[7\]
*432 memory\[5\]\[8\]
*433 memory\[5\]\[9\]
*434 memory\[6\]\[0\]
*435 memory\[6\]\[10\]
*436 memory\[6\]\[11\]
*437 memory\[6\]\[12\]
*438 memory\[6\]\[13\]
*439 memory\[6\]\[14\]
*440 memory\[6\]\[15\]
*441 memory\[6\]\[1\]
*442 memory\[6\]\[2\]
*443 memory\[6\]\[3\]
*444 memory\[6\]\[4\]
*445 memory\[6\]\[5\]
*446 memory\[6\]\[6\]
*447 memory\[6\]\[7\]
*448 memory\[6\]\[8\]
*449 memory\[6\]\[9\]
*450 memory\[7\]\[0\]
*451 memory\[7\]\[10\]
*452 memory\[7\]\[11\]
*453 memory\[7\]\[12\]
*454 memory\[7\]\[13\]
*455 memory\[7\]\[14\]
*456 memory\[7\]\[15\]
*457 memory\[7\]\[1\]
*458 memory\[7\]\[2\]
*459 memory\[7\]\[3\]
*460 memory\[7\]\[4\]
*461 memory\[7\]\[5\]
*462 memory\[7\]\[6\]
*463 memory\[7\]\[7\]
*464 memory\[7\]\[8\]
*465 memory\[7\]\[9\]
*466 net1
*467 net10
*468 net100
*469 net101
*470 net102
*471 net103
*472 net104
*473 net105
*474 net106
*475 net107
*476 net108
*477 net109
*478 net11
*479 net110
*480 net111
*481 net112
*482 net113
*483 net114
*484 net115
*485 net116
*486 net117
*487 net118
*488 net119
*489 net12
*490 net120
*491 net121
*492 net122
*493 net123
*494 net124
*495 net125
*496 net126
*497 net127
*498 net128
*499 net129
*500 net13
*501 net130
*502 net131
*503 net132
*504 net133
*505 net134
*506 net135
*507 net136
*508 net137
*509 net138
*510 net139
*511 net14
*512 net140
*513 net141
*514 net142
*515 net143
*516 net144
*517 net145
*518 net146
*519 net147
*520 net148
*521 net149
*522 net15
*523 net150
*524 net151
*525 net152
*526 net153
*527 net154
*528 net155
*529 net156
*530 net157
*531 net158
*532 net159
*533 net16
*534 net160
*535 net161
*536 net162
*537 net163
*538 net164
*539 net165
*540 net166
*541 net167
*542 net168
*543 net169
*544 net17
*545 net170
*546 net171
*547 net172
*548 net173
*549 net174
*550 net175
*551 net176
*552 net177
*553 net178
*554 net179
*555 net18
*556 net180
*557 net181
*558 net182
*559 net183
*560 net184
*561 net185
*562 net186
*563 net187
*564 net188
*565 net189
*566 net19
*567 net190
*568 net191
*569 net192
*570 net193
*571 net194
*572 net195
*573 net196
*574 net197
*575 net198
*576 net199
*577 net2
*578 net20
*579 net200
*580 net201
*581 net202
*582 net203
*583 net204
*584 net205
*585 net206
*586 net21
*587 net22
*588 net23
*589 net24
*590 net25
*591 net26
*592 net27
*593 net28
*594 net29
*595 net3
*596 net30
*597 net31
*598 net32
*599 net33
*600 net34
*601 net35
*602 net36
*603 net37
*604 net38
*605 net39
*606 net4
*607 net40
*608 net41
*609 net42
*610 net43
*611 net44
*612 net45
*613 net46
*614 net47
*615 net48
*616 net49
*617 net5
*618 net50
*619 net51
*620 net52
*621 net53
*622 net54
*623 net55
*624 net56
*625 net57
*626 net58
*627 net59
*628 net6
*629 net60
*630 net61
*631 net62
*632 net63
*633 net64
*634 net65
*635 net66
*636 net67
*637 net68
*638 net69
*639 net7
*640 net70
*641 net71
*642 net72
*643 net73
*644 net74
*645 net75
*646 net76
*647 net77
*648 net78
*649 net79
*650 net8
*651 net80
*652 net81
*653 net82
*654 net83
*655 net84
*656 net85
*657 net86
*658 net87
*659 net88
*660 net89
*661 net9
*662 net90
*663 net91
*664 net92
*665 net93
*666 net94
*667 net95
*668 net96
*669 net97
*670 net98
*671 net99
*672 FILLER_0_104
*673 FILLER_0_111
*674 FILLER_0_113
*675 FILLER_0_125
*676 FILLER_0_133
*677 FILLER_0_141
*678 FILLER_0_147
*679 FILLER_0_15
*680 FILLER_0_159
*681 FILLER_0_167
*682 FILLER_0_169
*683 FILLER_0_181
*684 FILLER_0_193
*685 FILLER_0_197
*686 FILLER_0_209
*687 FILLER_0_221
*688 FILLER_0_225
*689 FILLER_0_27
*690 FILLER_0_29
*691 FILLER_0_3
*692 FILLER_0_35
*693 FILLER_0_47
*694 FILLER_0_51
*695 FILLER_0_57
*696 FILLER_0_69
*697 FILLER_0_81
*698 FILLER_0_85
*699 FILLER_0_91
*700 FILLER_0_98
*701 FILLER_10_101
*702 FILLER_10_129
*703 FILLER_10_141
*704 FILLER_10_163
*705 FILLER_10_171
*706 FILLER_10_208
*707 FILLER_10_226
*708 FILLER_10_25
*709 FILLER_10_3
*710 FILLER_10_37
*711 FILLER_10_50
*712 FILLER_10_61
*713 FILLER_10_82
*714 FILLER_11_107
*715 FILLER_11_111
*716 FILLER_11_121
*717 FILLER_11_167
*718 FILLER_11_173
*719 FILLER_11_192
*720 FILLER_11_196
*721 FILLER_11_20
*722 FILLER_11_206
*723 FILLER_11_225
*724 FILLER_11_57
*725 FILLER_11_61
*726 FILLER_11_7
*727 FILLER_11_78
*728 FILLER_12_104
*729 FILLER_12_110
*730 FILLER_12_122
*731 FILLER_12_138
*732 FILLER_12_174
*733 FILLER_12_206
*734 FILLER_12_26
*735 FILLER_12_29
*736 FILLER_12_3
*737 FILLER_12_60
*738 FILLER_12_78
*739 FILLER_13_118
*740 FILLER_13_126
*741 FILLER_13_150
*742 FILLER_13_178
*743 FILLER_13_221
*744 FILLER_13_225
*745 FILLER_13_3
*746 FILLER_13_51
*747 FILLER_13_55
*748 FILLER_13_57
*749 FILLER_13_84
*750 FILLER_13_94
*751 FILLER_14_102
*752 FILLER_14_110
*753 FILLER_14_138
*754 FILLER_14_159
*755 FILLER_14_186
*756 FILLER_14_197
*757 FILLER_14_22
*758 FILLER_14_53
*759 FILLER_14_63
*760 FILLER_14_7
*761 FILLER_14_93
*762 FILLER_15_108
*763 FILLER_15_11
*764 FILLER_15_113
*765 FILLER_15_147
*766 FILLER_15_177
*767 FILLER_15_222
*768 FILLER_15_225
*769 FILLER_15_3
*770 FILLER_15_37
*771 FILLER_15_57
*772 FILLER_15_61
*773 FILLER_16_116
*774 FILLER_16_138
*775 FILLER_16_170
*776 FILLER_16_182
*777 FILLER_16_186
*778 FILLER_16_22
*779 FILLER_16_226
*780 FILLER_16_29
*781 FILLER_16_3
*782 FILLER_16_48
*783 FILLER_16_78
*784 FILLER_17_111
*785 FILLER_17_144
*786 FILLER_17_193
*787 FILLER_17_204
*788 FILLER_17_223
*789 FILLER_17_225
*790 FILLER_17_3
*791 FILLER_17_57
*792 FILLER_17_83
*793 FILLER_17_87
*794 FILLER_18_100
*795 FILLER_18_137
*796 FILLER_18_141
*797 FILLER_18_160
*798 FILLER_18_191
*799 FILLER_18_195
*800 FILLER_18_197
*801 FILLER_18_63
*802 FILLER_18_7
*803 FILLER_18_81
*804 FILLER_19_11
*805 FILLER_19_113
*806 FILLER_19_153
*807 FILLER_19_157
*808 FILLER_19_166
*809 FILLER_19_169
*810 FILLER_19_191
*811 FILLER_19_22
*812 FILLER_19_225
*813 FILLER_19_30
*814 FILLER_19_36
*815 FILLER_19_52
*816 FILLER_19_57
*817 FILLER_19_74
*818 FILLER_19_82
*819 FILLER_19_93
*820 FILLER_1_103
*821 FILLER_1_111
*822 FILLER_1_121
*823 FILLER_1_133
*824 FILLER_1_15
*825 FILLER_1_160
*826 FILLER_1_169
*827 FILLER_1_181
*828 FILLER_1_189
*829 FILLER_1_207
*830 FILLER_1_219
*831 FILLER_1_223
*832 FILLER_1_225
*833 FILLER_1_27
*834 FILLER_1_3
*835 FILLER_1_39
*836 FILLER_1_51
*837 FILLER_1_55
*838 FILLER_1_73
*839 FILLER_1_83
*840 FILLER_20_101
*841 FILLER_20_123
*842 FILLER_20_150
*843 FILLER_20_154
*844 FILLER_20_172
*845 FILLER_20_197
*846 FILLER_20_218
*847 FILLER_20_22
*848 FILLER_20_3
*849 FILLER_20_37
*850 FILLER_20_60
*851 FILLER_20_71
*852 FILLER_20_81
*853 FILLER_21_109
*854 FILLER_21_113
*855 FILLER_21_117
*856 FILLER_21_126
*857 FILLER_21_147
*858 FILLER_21_164
*859 FILLER_21_169
*860 FILLER_21_225
*861 FILLER_21_3
*862 FILLER_21_55
*863 FILLER_21_57
*864 FILLER_21_74
*865 FILLER_22_106
*866 FILLER_22_114
*867 FILLER_22_122
*868 FILLER_22_130
*869 FILLER_22_145
*870 FILLER_22_188
*871 FILLER_22_22
*872 FILLER_22_29
*873 FILLER_22_56
*874 FILLER_22_7
*875 FILLER_22_83
*876 FILLER_23_146
*877 FILLER_23_15
*878 FILLER_23_154
*879 FILLER_23_164
*880 FILLER_23_19
*881 FILLER_23_204
*882 FILLER_23_217
*883 FILLER_23_225
*884 FILLER_23_28
*885 FILLER_23_3
*886 FILLER_23_36
*887 FILLER_23_55
*888 FILLER_23_57
*889 FILLER_23_84
*890 FILLER_23_92
*891 FILLER_24_138
*892 FILLER_24_166
*893 FILLER_24_176
*894 FILLER_24_18
*895 FILLER_24_184
*896 FILLER_24_193
*897 FILLER_24_206
*898 FILLER_24_227
*899 FILLER_24_26
*900 FILLER_24_3
*901 FILLER_24_40
*902 FILLER_24_81
*903 FILLER_24_96
*904 FILLER_25_101
*905 FILLER_25_113
*906 FILLER_25_123
*907 FILLER_25_158
*908 FILLER_25_166
*909 FILLER_25_204
*910 FILLER_25_223
*911 FILLER_25_225
*912 FILLER_25_27
*913 FILLER_25_45
*914 FILLER_25_73
*915 FILLER_26_102
*916 FILLER_26_118
*917 FILLER_26_149
*918 FILLER_26_175
*919 FILLER_26_193
*920 FILLER_26_206
*921 FILLER_26_223
*922 FILLER_26_53
*923 FILLER_26_66
*924 FILLER_27_113
*925 FILLER_27_149
*926 FILLER_27_155
*927 FILLER_27_165
*928 FILLER_27_177
*929 FILLER_27_19
*930 FILLER_27_209
*931 FILLER_27_219
*932 FILLER_27_223
*933 FILLER_27_225
*934 FILLER_27_7
*935 FILLER_27_93
*936 FILLER_28_138
*937 FILLER_28_15
*938 FILLER_28_152
*939 FILLER_28_158
*940 FILLER_28_176
*941 FILLER_28_191
*942 FILLER_28_195
*943 FILLER_28_211
*944 FILLER_28_227
*945 FILLER_28_25
*946 FILLER_28_64
*947 FILLER_28_7
*948 FILLER_28_75
*949 FILLER_28_85
*950 FILLER_28_96
*951 FILLER_29_122
*952 FILLER_29_137
*953 FILLER_29_169
*954 FILLER_29_186
*955 FILLER_29_205
*956 FILLER_29_21
*957 FILLER_29_222
*958 FILLER_29_225
*959 FILLER_29_28
*960 FILLER_29_3
*961 FILLER_29_54
*962 FILLER_29_57
*963 FILLER_29_83
*964 FILLER_29_91
*965 FILLER_2_121
*966 FILLER_2_129
*967 FILLER_2_15
*968 FILLER_2_166
*969 FILLER_2_178
*970 FILLER_2_190
*971 FILLER_2_213
*972 FILLER_2_225
*973 FILLER_2_27
*974 FILLER_2_29
*975 FILLER_2_3
*976 FILLER_2_41
*977 FILLER_2_53
*978 FILLER_2_82
*979 FILLER_2_85
*980 FILLER_30_108
*981 FILLER_30_118
*982 FILLER_30_124
*983 FILLER_30_147
*984 FILLER_30_164
*985 FILLER_30_195
*986 FILLER_30_221
*987 FILLER_30_3
*988 FILLER_30_54
*989 FILLER_30_85
*990 FILLER_30_93
*991 FILLER_31_107
*992 FILLER_31_111
*993 FILLER_31_113
*994 FILLER_31_125
*995 FILLER_31_164
*996 FILLER_31_219
*997 FILLER_31_225
*998 FILLER_31_28
*999 FILLER_31_40
*1000 FILLER_31_53
*1001 FILLER_31_7
*1002 FILLER_31_87
*1003 FILLER_32_101
*1004 FILLER_32_126
*1005 FILLER_32_130
*1006 FILLER_32_136
*1007 FILLER_32_147
*1008 FILLER_32_15
*1009 FILLER_32_151
*1010 FILLER_32_170
*1011 FILLER_32_176
*1012 FILLER_32_195
*1013 FILLER_32_219
*1014 FILLER_32_29
*1015 FILLER_32_3
*1016 FILLER_32_63
*1017 FILLER_33_122
*1018 FILLER_33_126
*1019 FILLER_33_152
*1020 FILLER_33_169
*1021 FILLER_33_200
*1022 FILLER_33_221
*1023 FILLER_33_225
*1024 FILLER_33_3
*1025 FILLER_33_36
*1026 FILLER_33_55
*1027 FILLER_33_65
*1028 FILLER_33_73
*1029 FILLER_34_118
*1030 FILLER_34_158
*1031 FILLER_34_170
*1032 FILLER_34_195
*1033 FILLER_34_197
*1034 FILLER_34_225
*1035 FILLER_34_27
*1036 FILLER_34_3
*1037 FILLER_34_42
*1038 FILLER_34_62
*1039 FILLER_34_74
*1040 FILLER_34_82
*1041 FILLER_34_85
*1042 FILLER_34_96
*1043 FILLER_35_104
*1044 FILLER_35_130
*1045 FILLER_35_156
*1046 FILLER_35_169
*1047 FILLER_35_181
*1048 FILLER_35_197
*1049 FILLER_35_225
*1050 FILLER_35_27
*1051 FILLER_35_44
*1052 FILLER_35_57
*1053 FILLER_35_6
*1054 FILLER_35_69
*1055 FILLER_35_81
*1056 FILLER_36_109
*1057 FILLER_36_121
*1058 FILLER_36_133
*1059 FILLER_36_139
*1060 FILLER_36_141
*1061 FILLER_36_15
*1062 FILLER_36_153
*1063 FILLER_36_165
*1064 FILLER_36_177
*1065 FILLER_36_189
*1066 FILLER_36_195
*1067 FILLER_36_197
*1068 FILLER_36_221
*1069 FILLER_36_227
*1070 FILLER_36_27
*1071 FILLER_36_3
*1072 FILLER_36_41
*1073 FILLER_36_53
*1074 FILLER_36_65
*1075 FILLER_36_77
*1076 FILLER_36_83
*1077 FILLER_36_85
*1078 FILLER_36_97
*1079 FILLER_37_105
*1080 FILLER_37_111
*1081 FILLER_37_113
*1082 FILLER_37_125
*1083 FILLER_37_137
*1084 FILLER_37_149
*1085 FILLER_37_15
*1086 FILLER_37_161
*1087 FILLER_37_167
*1088 FILLER_37_169
*1089 FILLER_37_181
*1090 FILLER_37_193
*1091 FILLER_37_205
*1092 FILLER_37_213
*1093 FILLER_37_225
*1094 FILLER_37_27
*1095 FILLER_37_3
*1096 FILLER_37_39
*1097 FILLER_37_51
*1098 FILLER_37_55
*1099 FILLER_37_57
*1100 FILLER_37_69
*1101 FILLER_37_81
*1102 FILLER_37_93
*1103 FILLER_38_105
*1104 FILLER_38_111
*1105 FILLER_38_113
*1106 FILLER_38_125
*1107 FILLER_38_133
*1108 FILLER_38_141
*1109 FILLER_38_149
*1110 FILLER_38_15
*1111 FILLER_38_154
*1112 FILLER_38_166
*1113 FILLER_38_169
*1114 FILLER_38_181
*1115 FILLER_38_193
*1116 FILLER_38_197
*1117 FILLER_38_209
*1118 FILLER_38_221
*1119 FILLER_38_225
*1120 FILLER_38_27
*1121 FILLER_38_29
*1122 FILLER_38_3
*1123 FILLER_38_41
*1124 FILLER_38_53
*1125 FILLER_38_57
*1126 FILLER_38_65
*1127 FILLER_38_70
*1128 FILLER_38_82
*1129 FILLER_38_85
*1130 FILLER_38_93
*1131 FILLER_38_98
*1132 FILLER_3_105
*1133 FILLER_3_111
*1134 FILLER_3_121
*1135 FILLER_3_133
*1136 FILLER_3_141
*1137 FILLER_3_15
*1138 FILLER_3_161
*1139 FILLER_3_167
*1140 FILLER_3_185
*1141 FILLER_3_223
*1142 FILLER_3_225
*1143 FILLER_3_27
*1144 FILLER_3_3
*1145 FILLER_3_44
*1146 FILLER_3_62
*1147 FILLER_3_89
*1148 FILLER_3_95
*1149 FILLER_4_121
*1150 FILLER_4_133
*1151 FILLER_4_139
*1152 FILLER_4_141
*1153 FILLER_4_147
*1154 FILLER_4_15
*1155 FILLER_4_159
*1156 FILLER_4_214
*1157 FILLER_4_27
*1158 FILLER_4_3
*1159 FILLER_4_67
*1160 FILLER_4_79
*1161 FILLER_4_83
*1162 FILLER_4_85
*1163 FILLER_4_91
*1164 FILLER_5_103
*1165 FILLER_5_111
*1166 FILLER_5_122
*1167 FILLER_5_130
*1168 FILLER_5_15
*1169 FILLER_5_161
*1170 FILLER_5_167
*1171 FILLER_5_169
*1172 FILLER_5_203
*1173 FILLER_5_223
*1174 FILLER_5_225
*1175 FILLER_5_27
*1176 FILLER_5_3
*1177 FILLER_5_51
*1178 FILLER_5_55
*1179 FILLER_5_71
*1180 FILLER_5_77
*1181 FILLER_6_139
*1182 FILLER_6_15
*1183 FILLER_6_165
*1184 FILLER_6_175
*1185 FILLER_6_183
*1186 FILLER_6_195
*1187 FILLER_6_209
*1188 FILLER_6_27
*1189 FILLER_6_29
*1190 FILLER_6_3
*1191 FILLER_6_33
*1192 FILLER_6_57
*1193 FILLER_6_85
*1194 FILLER_7_119
*1195 FILLER_7_148
*1196 FILLER_7_15
*1197 FILLER_7_165
*1198 FILLER_7_173
*1199 FILLER_7_223
*1200 FILLER_7_225
*1201 FILLER_7_23
*1202 FILLER_7_3
*1203 FILLER_7_30
*1204 FILLER_7_57
*1205 FILLER_7_75
*1206 FILLER_8_127
*1207 FILLER_8_174
*1208 FILLER_8_192
*1209 FILLER_8_206
*1210 FILLER_8_223
*1211 FILLER_8_29
*1212 FILLER_8_3
*1213 FILLER_8_56
*1214 FILLER_8_60
*1215 FILLER_8_81
*1216 FILLER_8_85
*1217 FILLER_9_129
*1218 FILLER_9_135
*1219 FILLER_9_140
*1220 FILLER_9_163
*1221 FILLER_9_167
*1222 FILLER_9_177
*1223 FILLER_9_181
*1224 FILLER_9_200
*1225 FILLER_9_29
*1226 FILLER_9_3
*1227 FILLER_9_57
*1228 FILLER_9_61
*1229 FILLER_9_81
*1230 PHY_EDGE_ROW_0_Left_39
*1231 PHY_EDGE_ROW_0_Right_0
*1232 PHY_EDGE_ROW_10_Left_49
*1233 PHY_EDGE_ROW_10_Right_10
*1234 PHY_EDGE_ROW_11_Left_50
*1235 PHY_EDGE_ROW_11_Right_11
*1236 PHY_EDGE_ROW_12_Left_51
*1237 PHY_EDGE_ROW_12_Right_12
*1238 PHY_EDGE_ROW_13_Left_52
*1239 PHY_EDGE_ROW_13_Right_13
*1240 PHY_EDGE_ROW_14_Left_53
*1241 PHY_EDGE_ROW_14_Right_14
*1242 PHY_EDGE_ROW_15_Left_54
*1243 PHY_EDGE_ROW_15_Right_15
*1244 PHY_EDGE_ROW_16_Left_55
*1245 PHY_EDGE_ROW_16_Right_16
*1246 PHY_EDGE_ROW_17_Left_56
*1247 PHY_EDGE_ROW_17_Right_17
*1248 PHY_EDGE_ROW_18_Left_57
*1249 PHY_EDGE_ROW_18_Right_18
*1250 PHY_EDGE_ROW_19_Left_58
*1251 PHY_EDGE_ROW_19_Right_19
*1252 PHY_EDGE_ROW_1_Left_40
*1253 PHY_EDGE_ROW_1_Right_1
*1254 PHY_EDGE_ROW_20_Left_59
*1255 PHY_EDGE_ROW_20_Right_20
*1256 PHY_EDGE_ROW_21_Left_60
*1257 PHY_EDGE_ROW_21_Right_21
*1258 PHY_EDGE_ROW_22_Left_61
*1259 PHY_EDGE_ROW_22_Right_22
*1260 PHY_EDGE_ROW_23_Left_62
*1261 PHY_EDGE_ROW_23_Right_23
*1262 PHY_EDGE_ROW_24_Left_63
*1263 PHY_EDGE_ROW_24_Right_24
*1264 PHY_EDGE_ROW_25_Left_64
*1265 PHY_EDGE_ROW_25_Right_25
*1266 PHY_EDGE_ROW_26_Left_65
*1267 PHY_EDGE_ROW_26_Right_26
*1268 PHY_EDGE_ROW_27_Left_66
*1269 PHY_EDGE_ROW_27_Right_27
*1270 PHY_EDGE_ROW_28_Left_67
*1271 PHY_EDGE_ROW_28_Right_28
*1272 PHY_EDGE_ROW_29_Left_68
*1273 PHY_EDGE_ROW_29_Right_29
*1274 PHY_EDGE_ROW_2_Left_41
*1275 PHY_EDGE_ROW_2_Right_2
*1276 PHY_EDGE_ROW_30_Left_69
*1277 PHY_EDGE_ROW_30_Right_30
*1278 PHY_EDGE_ROW_31_Left_70
*1279 PHY_EDGE_ROW_31_Right_31
*1280 PHY_EDGE_ROW_32_Left_71
*1281 PHY_EDGE_ROW_32_Right_32
*1282 PHY_EDGE_ROW_33_Left_72
*1283 PHY_EDGE_ROW_33_Right_33
*1284 PHY_EDGE_ROW_34_Left_73
*1285 PHY_EDGE_ROW_34_Right_34
*1286 PHY_EDGE_ROW_35_Left_74
*1287 PHY_EDGE_ROW_35_Right_35
*1288 PHY_EDGE_ROW_36_Left_75
*1289 PHY_EDGE_ROW_36_Right_36
*1290 PHY_EDGE_ROW_37_Left_76
*1291 PHY_EDGE_ROW_37_Right_37
*1292 PHY_EDGE_ROW_38_Left_77
*1293 PHY_EDGE_ROW_38_Right_38
*1294 PHY_EDGE_ROW_3_Left_42
*1295 PHY_EDGE_ROW_3_Right_3
*1296 PHY_EDGE_ROW_4_Left_43
*1297 PHY_EDGE_ROW_4_Right_4
*1298 PHY_EDGE_ROW_5_Left_44
*1299 PHY_EDGE_ROW_5_Right_5
*1300 PHY_EDGE_ROW_6_Left_45
*1301 PHY_EDGE_ROW_6_Right_6
*1302 PHY_EDGE_ROW_7_Left_46
*1303 PHY_EDGE_ROW_7_Right_7
*1304 PHY_EDGE_ROW_8_Left_47
*1305 PHY_EDGE_ROW_8_Right_8
*1306 PHY_EDGE_ROW_9_Left_48
*1307 PHY_EDGE_ROW_9_Right_9
*1308 TAP_TAPCELL_ROW_0_78
*1309 TAP_TAPCELL_ROW_0_79
*1310 TAP_TAPCELL_ROW_0_80
*1311 TAP_TAPCELL_ROW_0_81
*1312 TAP_TAPCELL_ROW_0_82
*1313 TAP_TAPCELL_ROW_0_83
*1314 TAP_TAPCELL_ROW_0_84
*1315 TAP_TAPCELL_ROW_0_85
*1316 TAP_TAPCELL_ROW_10_122
*1317 TAP_TAPCELL_ROW_10_123
*1318 TAP_TAPCELL_ROW_10_124
*1319 TAP_TAPCELL_ROW_10_125
*1320 TAP_TAPCELL_ROW_11_126
*1321 TAP_TAPCELL_ROW_11_127
*1322 TAP_TAPCELL_ROW_11_128
*1323 TAP_TAPCELL_ROW_11_129
*1324 TAP_TAPCELL_ROW_12_130
*1325 TAP_TAPCELL_ROW_12_131
*1326 TAP_TAPCELL_ROW_12_132
*1327 TAP_TAPCELL_ROW_12_133
*1328 TAP_TAPCELL_ROW_13_134
*1329 TAP_TAPCELL_ROW_13_135
*1330 TAP_TAPCELL_ROW_13_136
*1331 TAP_TAPCELL_ROW_13_137
*1332 TAP_TAPCELL_ROW_14_138
*1333 TAP_TAPCELL_ROW_14_139
*1334 TAP_TAPCELL_ROW_14_140
*1335 TAP_TAPCELL_ROW_14_141
*1336 TAP_TAPCELL_ROW_15_142
*1337 TAP_TAPCELL_ROW_15_143
*1338 TAP_TAPCELL_ROW_15_144
*1339 TAP_TAPCELL_ROW_15_145
*1340 TAP_TAPCELL_ROW_16_146
*1341 TAP_TAPCELL_ROW_16_147
*1342 TAP_TAPCELL_ROW_16_148
*1343 TAP_TAPCELL_ROW_16_149
*1344 TAP_TAPCELL_ROW_17_150
*1345 TAP_TAPCELL_ROW_17_151
*1346 TAP_TAPCELL_ROW_17_152
*1347 TAP_TAPCELL_ROW_17_153
*1348 TAP_TAPCELL_ROW_18_154
*1349 TAP_TAPCELL_ROW_18_155
*1350 TAP_TAPCELL_ROW_18_156
*1351 TAP_TAPCELL_ROW_18_157
*1352 TAP_TAPCELL_ROW_19_158
*1353 TAP_TAPCELL_ROW_19_159
*1354 TAP_TAPCELL_ROW_19_160
*1355 TAP_TAPCELL_ROW_19_161
*1356 TAP_TAPCELL_ROW_1_86
*1357 TAP_TAPCELL_ROW_1_87
*1358 TAP_TAPCELL_ROW_1_88
*1359 TAP_TAPCELL_ROW_1_89
*1360 TAP_TAPCELL_ROW_20_162
*1361 TAP_TAPCELL_ROW_20_163
*1362 TAP_TAPCELL_ROW_20_164
*1363 TAP_TAPCELL_ROW_20_165
*1364 TAP_TAPCELL_ROW_21_166
*1365 TAP_TAPCELL_ROW_21_167
*1366 TAP_TAPCELL_ROW_21_168
*1367 TAP_TAPCELL_ROW_21_169
*1368 TAP_TAPCELL_ROW_22_170
*1369 TAP_TAPCELL_ROW_22_171
*1370 TAP_TAPCELL_ROW_22_172
*1371 TAP_TAPCELL_ROW_22_173
*1372 TAP_TAPCELL_ROW_23_174
*1373 TAP_TAPCELL_ROW_23_175
*1374 TAP_TAPCELL_ROW_23_176
*1375 TAP_TAPCELL_ROW_23_177
*1376 TAP_TAPCELL_ROW_24_178
*1377 TAP_TAPCELL_ROW_24_179
*1378 TAP_TAPCELL_ROW_24_180
*1379 TAP_TAPCELL_ROW_24_181
*1380 TAP_TAPCELL_ROW_25_182
*1381 TAP_TAPCELL_ROW_25_183
*1382 TAP_TAPCELL_ROW_25_184
*1383 TAP_TAPCELL_ROW_25_185
*1384 TAP_TAPCELL_ROW_26_186
*1385 TAP_TAPCELL_ROW_26_187
*1386 TAP_TAPCELL_ROW_26_188
*1387 TAP_TAPCELL_ROW_26_189
*1388 TAP_TAPCELL_ROW_27_190
*1389 TAP_TAPCELL_ROW_27_191
*1390 TAP_TAPCELL_ROW_27_192
*1391 TAP_TAPCELL_ROW_27_193
*1392 TAP_TAPCELL_ROW_28_194
*1393 TAP_TAPCELL_ROW_28_195
*1394 TAP_TAPCELL_ROW_28_196
*1395 TAP_TAPCELL_ROW_28_197
*1396 TAP_TAPCELL_ROW_29_198
*1397 TAP_TAPCELL_ROW_29_199
*1398 TAP_TAPCELL_ROW_29_200
*1399 TAP_TAPCELL_ROW_29_201
*1400 TAP_TAPCELL_ROW_2_90
*1401 TAP_TAPCELL_ROW_2_91
*1402 TAP_TAPCELL_ROW_2_92
*1403 TAP_TAPCELL_ROW_2_93
*1404 TAP_TAPCELL_ROW_30_202
*1405 TAP_TAPCELL_ROW_30_203
*1406 TAP_TAPCELL_ROW_30_204
*1407 TAP_TAPCELL_ROW_30_205
*1408 TAP_TAPCELL_ROW_31_206
*1409 TAP_TAPCELL_ROW_31_207
*1410 TAP_TAPCELL_ROW_31_208
*1411 TAP_TAPCELL_ROW_31_209
*1412 TAP_TAPCELL_ROW_32_210
*1413 TAP_TAPCELL_ROW_32_211
*1414 TAP_TAPCELL_ROW_32_212
*1415 TAP_TAPCELL_ROW_32_213
*1416 TAP_TAPCELL_ROW_33_214
*1417 TAP_TAPCELL_ROW_33_215
*1418 TAP_TAPCELL_ROW_33_216
*1419 TAP_TAPCELL_ROW_33_217
*1420 TAP_TAPCELL_ROW_34_218
*1421 TAP_TAPCELL_ROW_34_219
*1422 TAP_TAPCELL_ROW_34_220
*1423 TAP_TAPCELL_ROW_34_221
*1424 TAP_TAPCELL_ROW_35_222
*1425 TAP_TAPCELL_ROW_35_223
*1426 TAP_TAPCELL_ROW_35_224
*1427 TAP_TAPCELL_ROW_35_225
*1428 TAP_TAPCELL_ROW_36_226
*1429 TAP_TAPCELL_ROW_36_227
*1430 TAP_TAPCELL_ROW_36_228
*1431 TAP_TAPCELL_ROW_36_229
*1432 TAP_TAPCELL_ROW_37_230
*1433 TAP_TAPCELL_ROW_37_231
*1434 TAP_TAPCELL_ROW_37_232
*1435 TAP_TAPCELL_ROW_37_233
*1436 TAP_TAPCELL_ROW_38_234
*1437 TAP_TAPCELL_ROW_38_235
*1438 TAP_TAPCELL_ROW_38_236
*1439 TAP_TAPCELL_ROW_38_237
*1440 TAP_TAPCELL_ROW_38_238
*1441 TAP_TAPCELL_ROW_38_239
*1442 TAP_TAPCELL_ROW_38_240
*1443 TAP_TAPCELL_ROW_38_241
*1444 TAP_TAPCELL_ROW_3_94
*1445 TAP_TAPCELL_ROW_3_95
*1446 TAP_TAPCELL_ROW_3_96
*1447 TAP_TAPCELL_ROW_3_97
*1448 TAP_TAPCELL_ROW_4_100
*1449 TAP_TAPCELL_ROW_4_101
*1450 TAP_TAPCELL_ROW_4_98
*1451 TAP_TAPCELL_ROW_4_99
*1452 TAP_TAPCELL_ROW_5_102
*1453 TAP_TAPCELL_ROW_5_103
*1454 TAP_TAPCELL_ROW_5_104
*1455 TAP_TAPCELL_ROW_5_105
*1456 TAP_TAPCELL_ROW_6_106
*1457 TAP_TAPCELL_ROW_6_107
*1458 TAP_TAPCELL_ROW_6_108
*1459 TAP_TAPCELL_ROW_6_109
*1460 TAP_TAPCELL_ROW_7_110
*1461 TAP_TAPCELL_ROW_7_111
*1462 TAP_TAPCELL_ROW_7_112
*1463 TAP_TAPCELL_ROW_7_113
*1464 TAP_TAPCELL_ROW_8_114
*1465 TAP_TAPCELL_ROW_8_115
*1466 TAP_TAPCELL_ROW_8_116
*1467 TAP_TAPCELL_ROW_8_117
*1468 TAP_TAPCELL_ROW_9_118
*1469 TAP_TAPCELL_ROW_9_119
*1470 TAP_TAPCELL_ROW_9_120
*1471 TAP_TAPCELL_ROW_9_121
*1472 _267_
*1473 _268_
*1474 _269_
*1475 _270_
*1476 _271_
*1477 _272_
*1478 _273_
*1479 _274_
*1480 _275_
*1481 _276_
*1482 _277_
*1483 _278_
*1484 _279_
*1485 _280_
*1486 _281_
*1487 _282_
*1488 _283_
*1489 _284_
*1490 _285_
*1491 _286_
*1492 _287_
*1493 _288_
*1494 _289_
*1495 _290_
*1496 _291_
*1497 _292_
*1498 _293_
*1499 _294_
*1500 _295_
*1501 _296_
*1502 _297_
*1503 _298_
*1504 _299_
*1505 _300_
*1506 _301_
*1507 _302_
*1508 _303_
*1509 _304_
*1510 _305_
*1511 _306_
*1512 _307_
*1513 _308_
*1514 _309_
*1515 _310_
*1516 _311_
*1517 _312_
*1518 _313_
*1519 _314_
*1520 _315_
*1521 _316_
*1522 _317_
*1523 _318_
*1524 _319_
*1525 _320_
*1526 _321_
*1527 _322_
*1528 _323_
*1529 _324_
*1530 _325_
*1531 _326_
*1532 _327_
*1533 _328_
*1534 _329_
*1535 _330_
*1536 _331_
*1537 _332_
*1538 _333_
*1539 _334_
*1540 _335_
*1541 _336_
*1542 _337_
*1543 _338_
*1544 _339_
*1545 _340_
*1546 _341_
*1547 _342_
*1548 _343_
*1549 _344_
*1550 _345_
*1551 _346_
*1552 _347_
*1553 _348_
*1554 _349_
*1555 _350_
*1556 _351_
*1557 _352_
*1558 _353_
*1559 _354_
*1560 _355_
*1561 _356_
*1562 _357_
*1563 _358_
*1564 _359_
*1565 _360_
*1566 _361_
*1567 _362_
*1568 _363_
*1569 _364_
*1570 _365_
*1571 _366_
*1572 _367_
*1573 _368_
*1574 _369_
*1575 _370_
*1576 _371_
*1577 _372_
*1578 _373_
*1579 _374_
*1580 _375_
*1581 _376_
*1582 _377_
*1583 _378_
*1584 _379_
*1585 _380_
*1586 _381_
*1587 _382_
*1588 _383_
*1589 _384_
*1590 _385_
*1591 _386_
*1592 _387_
*1593 _388_
*1594 _389_
*1595 _390_
*1596 _391_
*1597 _392_
*1598 _393_
*1599 _394_
*1600 _395_
*1601 _396_
*1602 _397_
*1603 _398_
*1604 _399_
*1605 _400_
*1606 _401_
*1607 _402_
*1608 _403_
*1609 _404_
*1610 _405_
*1611 _406_
*1612 _407_
*1613 _408_
*1614 _409_
*1615 _410_
*1616 _411_
*1617 _412_
*1618 _413_
*1619 _414_
*1620 _415_
*1621 _416_
*1622 _417_
*1623 _418_
*1624 _419_
*1625 _420_
*1626 _421_
*1627 _422_
*1628 _423_
*1629 _424_
*1630 _425_
*1631 _426_
*1632 _427_
*1633 _428_
*1634 _429_
*1635 _430_
*1636 _431_
*1637 _432_
*1638 _433_
*1639 _434_
*1640 _435_
*1641 _436_
*1642 _437_
*1643 _438_
*1644 _439_
*1645 _440_
*1646 _441_
*1647 _442_
*1648 _443_
*1649 _444_
*1650 _445_
*1651 _446_
*1652 _447_
*1653 _448_
*1654 _449_
*1655 _450_
*1656 _451_
*1657 _452_
*1658 _453_
*1659 _454_
*1660 _455_
*1661 _456_
*1662 _457_
*1663 _458_
*1664 _459_
*1665 _460_
*1666 _461_
*1667 _462_
*1668 _463_
*1669 _464_
*1670 _465_
*1671 _466_
*1672 _467_
*1673 _468_
*1674 _469_
*1675 _470_
*1676 _471_
*1677 _472_
*1678 _473_
*1679 _474_
*1680 _475_
*1681 _476_
*1682 _477_
*1683 _478_
*1684 _479_
*1685 _480_
*1686 _481_
*1687 _482_
*1688 _483_
*1689 _484_