*SPEF "ieee 1481-1999"
*DESIGN "Instruction_Memory_16"
*DATE "22:55:27 Tuesday November 04, 2025"
*VENDOR "The OpenROAD Project"
*PROGRAM "OpenROAD"
*VERSION "24Q3-9297-g8daed51a74"
*DESIGN_FLOW "NAME_SCOPE LOCAL" "PIN_CAP NONE"
*DIVIDER /
*DELIMITER :
*BUS_DELIMITER []
*T_UNIT 1 NS
*C_UNIT 1 PF
*R_UNIT 1 OHM
*L_UNIT 1 HENRY

*NAME_MAP
*2 instruction[0]
*3 instruction[10]
*4 instruction[11]
*5 instruction[12]
*6 instruction[13]
*7 instruction[14]
*8 instruction[15]
*9 instruction[1]
*10 instruction[2]
*11 instruction[3]
*12 instruction[4]
*13 instruction[5]
*14 instruction[6]
*15 instruction[7]
*16 instruction[8]
*17 instruction[9]
*18 pc[0]
*19 pc[10]
*20 pc[11]
*21 pc[12]
*22 pc[13]
*23 pc[14]
*24 pc[15]
*25 pc[1]
*26 pc[2]
*27 pc[3]
*28 pc[4]
*29 pc[5]
*30 pc[6]
*31 pc[7]
*32 pc[8]
*33 pc[9]
*34 TAP_TAPCELL_ROW_0_0
*35 FILLER_1_16
*36 FILLER_1_8
*37 FILLER_1_0
*38 FILLER_0_73
*39 FILLER_0_69
*40 FILLER_0_61
*41 FILLER_0_59
*42 FILLER_0_55
*43 FILLER_0_47
*44 FILLER_0_39
*45 FILLER_0_31
*46 FILLER_0_28
*47 FILLER_0_24
*48 FILLER_0_16
*49 FILLER_0_8
*50 FILLER_0_0
*51 _02__1
*52 _03__2
*53 _04__3
*54 _05__4
*55 _06__5
*56 _07__6
*57 _08__7
*58 _09__8
*59 _10__9
*60 _11__10
*61 _12__11
*62 _13__12
*63 _14__13
*64 _15__14
*65 _16__15
*66 _17__16
*67 TAP_TAPCELL_ROW_0_1
*68 TAP_TAPCELL_ROW_1_2
*69 TAP_TAPCELL_ROW_2_3
*70 TAP_TAPCELL_ROW_3_4
*71 TAP_TAPCELL_ROW_4_5
*72 TAP_TAPCELL_ROW_5_6
*73 TAP_TAPCELL_ROW_6_7
*74 TAP_TAPCELL_ROW_7_8
*75 TAP_TAPCELL_ROW_8_9
*76 TAP_TAPCELL_ROW_9_10
*77 TAP_TAPCELL_ROW_10_11
*78 TAP_TAPCELL_ROW_11_12
*79 TAP_TAPCELL_ROW_11_13
*80 FILLER_1_20
*81 FILLER_1_24
*82 FILLER_1_32
*83 FILLER_1_36
*84 FILLER_1_40
*85 FILLER_1_44
*86 FILLER_1_52
*87 FILLER_1_61
*88 FILLER_1_69
*89 FILLER_1_73
*90 FILLER_2_3
*91 FILLER_2_11
*92 FILLER_2_19
*93 FILLER_2_27
*94 FILLER_2_29
*95 FILLER_2_31
*96 FILLER_2_39
*97 FILLER_2_47
*98 FILLER_2_55
*99 FILLER_2_63
*100 FILLER_2_71
*101 FILLER_3_0
*102 FILLER_3_8
*103 FILLER_3_16
*104 FILLER_3_24
*105 FILLER_3_32
*106 FILLER_3_40
*107 FILLER_3_48
*108 FILLER_3_56
*109 FILLER_3_61
*110 FILLER_4_0
*111 FILLER_4_8
*112 FILLER_4_16
*113 FILLER_4_24
*114 FILLER_4_28
*115 FILLER_4_31
*116 FILLER_4_39
*117 FILLER_4_47
*118 FILLER_4_55
*119 FILLER_4_63
*120 FILLER_4_71
*121 FILLER_5_3
*122 FILLER_5_11
*123 FILLER_5_19
*124 FILLER_5_27
*125 FILLER_5_35
*126 FILLER_5_43
*127 FILLER_5_51
*128 FILLER_5_59
*129 FILLER_5_61
*130 FILLER_5_69
*131 FILLER_5_73
*132 FILLER_6_0
*133 FILLER_6_8
*134 FILLER_6_16
*135 FILLER_6_24
*136 FILLER_6_28
*137 FILLER_6_31
*138 FILLER_6_39
*139 FILLER_6_47
*140 FILLER_6_55
*141 FILLER_6_63
*142 FILLER_6_71
*143 FILLER_7_0
*144 FILLER_7_8
*145 FILLER_7_16
*146 FILLER_7_24
*147 FILLER_7_32
*148 FILLER_7_40
*149 FILLER_7_48
*150 FILLER_7_56
*151 FILLER_7_61
*152 FILLER_8_0
*153 FILLER_8_8
*154 FILLER_8_16
*155 FILLER_8_24
*156 FILLER_8_28
*157 FILLER_8_31
*158 FILLER_8_39
*159 FILLER_8_47
*160 FILLER_8_55
*161 FILLER_8_63
*162 FILLER_8_71
*163 FILLER_9_0
*164 FILLER_9_8
*165 FILLER_9_16
*166 FILLER_9_24
*167 FILLER_9_32
*168 FILLER_9_40
*169 FILLER_9_48
*170 FILLER_9_56
*171 FILLER_9_61
*172 FILLER_9_69
*173 FILLER_9_71
*174 FILLER_10_0
*175 FILLER_10_8
*176 FILLER_10_16
*177 FILLER_10_31
*178 FILLER_10_39
*179 FILLER_10_47
*180 FILLER_10_51
*181 FILLER_10_58
*182 FILLER_10_66
*183 FILLER_10_74
*184 FILLER_11_0
*185 FILLER_11_8
*186 FILLER_11_16
*187 FILLER_11_24
*188 FILLER_11_28
*189 FILLER_11_31
*190 FILLER_11_39
*191 FILLER_11_47
*192 FILLER_11_55
*193 FILLER_11_59
*194 FILLER_11_61
*195 FILLER_11_69
*196 FILLER_11_73

*PORTS
instruction[0] O
instruction[10] O
instruction[11] O
instruction[12] O
instruction[13] O
instruction[14] O
instruction[15] O
instruction[1] O
instruction[2] O
instruction[3] O
instruction[4] O
instruction[5] O
instruction[6] O
instruction[7] O
instruction[8] O
instruction[9] O
pc[0] I
pc[10] I
pc[11] I
pc[12] I
pc[13] I
pc[14] I
pc[15] I
pc[1] I
pc[2] I
pc[3] I
pc[4] I
pc[5] I
pc[6] I
pc[7] I
pc[8] I
pc[9] I

*D_NET *2 0.000274236
*CONN
*P instruction[0] O
*I *51:LO O *D sky130_fd_sc_hd__conb_1
*CAP
1 instruction[0] 0.000137118
2 *51:LO 0.000137118
*RES
1 *51:LO instruction[0] 17.8657 
*END

*D_NET *3 0.000200063
*CONN
*P instruction[10] O
*I *61:LO O *D sky130_fd_sc_hd__conb_1
*CAP
1 instruction[10] 6.70862e-05
2 *61:LO 6.70862e-05
3 instruction[10] instruction[6] 6.5891e-05
*RES
1 *61:LO instruction[10] 17.7119 
*END

*D_NET *4 0.000187981
*CONN
*P instruction[11] O
*I *62:LO O *D sky130_fd_sc_hd__conb_1
*CAP
1 instruction[11] 5.9239e-05
2 *62:LO 5.9239e-05
3 instruction[11] instruction[5] 6.95034e-05
*RES
1 *62:LO instruction[11] 17.7119 
*END

*D_NET *5 0.000745667
*CONN
*P instruction[12] O
*I *63:LO O *D sky130_fd_sc_hd__conb_1
*CAP
1 instruction[12] 0.000262618
2 *63:LO 0.000262618
3 instruction[12] instruction[7] 0.00022043
*RES
1 *63:LO instruction[12] 21.3486 
*END

*D_NET *6 0.000542553
*CONN
*P instruction[13] O
*I *64:LO O *D sky130_fd_sc_hd__conb_1
*CAP
1 instruction[13] 0.000271276
2 *64:LO 0.000271276
3 instruction[13] instruction[2] 0
*RES
1 *64:LO instruction[13] 20.6863 
*END

*D_NET *7 0.000314587
*CONN
*P instruction[14] O
*I *65:LO O *D sky130_fd_sc_hd__conb_1
*CAP
1 instruction[14] 0.000157294
2 *65:LO 0.000157294
*RES
1 *65:LO instruction[14] 18.6962 
*END

*D_NET *8 0.000542553
*CONN
*P instruction[15] O
*I *66:LO O *D sky130_fd_sc_hd__conb_1
*CAP
1 instruction[15] 0.000271276
2 *66:LO 0.000271276
*RES
1 *66:LO instruction[15] 20.6863 
*END

*D_NET *9 0.000505481
*CONN
*P instruction[1] O
*I *52:LO O *D sky130_fd_sc_hd__conb_1
*CAP
1 instruction[1] 0.000204429
2 *52:LO 0.000204429
3 instruction[1] instruction[3] 0
4 instruction[1] instruction[9] 9.66229e-05
*RES
1 *52:LO instruction[1] 19.7214 
*END

*D_NET *10 0.000542553
*CONN
*P instruction[2] O
*I *53:LO O *D sky130_fd_sc_hd__conb_1
*CAP
1 instruction[2] 0.000271276
2 *53:LO 0.000271276
3 instruction[13] instruction[2] 0
*RES
1 *53:LO instruction[2] 20.6863 
*END

*D_NET *11 0.000583742
*CONN
*P instruction[3] O
*I *54:LO O *D sky130_fd_sc_hd__conb_1
*CAP
1 instruction[3] 0.000291871
2 *54:LO 0.000291871
3 instruction[1] instruction[3] 0
*RES
1 *54:LO instruction[3] 20.4448 
*END

*D_NET *12 0.000692494
*CONN
*P instruction[4] O
*I *55:LO O *D sky130_fd_sc_hd__conb_1
*CAP
1 instruction[4] 0.000334301
2 *55:LO 0.000334301
3 instruction[4] instruction[9] 2.38927e-05
*RES
1 *55:LO instruction[4] 22.2524 
*END

*D_NET *13 0.000321622
*CONN
*P instruction[5] O
*I *56:LO O *D sky130_fd_sc_hd__conb_1
*CAP
1 instruction[5] 0.000126059
2 *56:LO 0.000126059
3 instruction[5] instruction[8] 0
4 instruction[11] instruction[5] 6.95034e-05
*RES
1 *56:LO instruction[5] 17.9414 
*END

*D_NET *14 0.000326365
*CONN
*P instruction[6] O
*I *57:LO O *D sky130_fd_sc_hd__conb_1
*CAP
1 instruction[6] 0.000130237
2 *57:LO 0.000130237
3 instruction[10] instruction[6] 6.5891e-05
*RES
1 *57:LO instruction[6] 17.9414 
*END

*D_NET *15 0.000682349
*CONN
*P instruction[7] O
*I *58:LO O *D sky130_fd_sc_hd__conb_1
*CAP
1 instruction[7] 0.000230959
2 *58:LO 0.000230959
3 instruction[12] instruction[7] 0.00022043
*RES
1 *58:LO instruction[7] 20.4448 
*END

*D_NET *16 0.000160531
*CONN
*P instruction[8] O
*I *59:LO O *D sky130_fd_sc_hd__conb_1
*CAP
1 instruction[8] 8.02657e-05
2 *59:LO 8.02657e-05
3 instruction[5] instruction[8] 0
*RES
1 *59:LO instruction[8] 17.7119 
*END

*D_NET *17 0.000996087
*CONN
*P instruction[9] O
*I *60:LO O *D sky130_fd_sc_hd__conb_1
*CAP
1 instruction[9] 0.000437786
2 *60:LO 0.000437786
3 instruction[1] instruction[9] 9.66229e-05
4 instruction[4] instruction[9] 2.38927e-05
*RES
1 *60:LO instruction[9] 25.3158 
*END
