*SPEF "ieee 1481-1999"
*DESIGN "Data_Memory"
*DATE "21:48:29 Tuesday November 04, 2025"
*VENDOR "The OpenROAD Project"
*PROGRAM "OpenROAD"
*VERSION "24Q3-9297-g8daed51a74"
*DESIGN_FLOW "NAME_SCOPE LOCAL" "PIN_CAP NONE"
*DIVIDER /
*DELIMITER :
*BUS_DELIMITER []
*T_UNIT 1 NS
*C_UNIT 1 PF
*R_UNIT 1 OHM
*L_UNIT 1 HENRY

*NAME_MAP
*1 _000_
*2 _001_
*3 _002_
*4 _003_
*5 _004_
*6 _005_
*7 _006_
*8 _007_
*9 net16
*10 net15
*11 net14
*12 net13
*13 _012_
*14 net12
*15 _014_
*16 _015_
*17 net11
*18 _017_
*19 _018_
*20 net10
*21 _020_
*22 net9
*23 net8
*24 net7
*25 _024_
*26 _025_
*27 _026_
*28 net6
*29 net5
*30 _029_
*31 net4
*32 _031_
*33 _032_
*34 _033_
*35 _034_
*36 net3
*37 net2
*38 _037_
*39 _038_
*40 _039_
*41 net1
*43 _042_
*44 _043_
*45 _044_
*47 _046_
*48 _047_
*49 _048_
*50 _049_
*51 _050_
*52 _051_
*53 _052_
*54 _053_
*55 _054_
*56 _055_
*57 _056_
*58 _057_
*59 _058_
*60 _059_
*61 _060_
*62 _061_
*63 _062_
*64 _063_
*65 _064_
*66 _065_
*67 _066_
*68 _067_
*69 _068_
*70 _069_
*71 _070_
*72 _071_
*73 _072_
*74 _073_
*75 _074_
*76 _075_
*77 _076_
*78 _077_
*79 _078_
*80 _079_
*81 _080_
*82 _081_
*83 _082_
*84 _083_
*85 _084_
*86 _085_
*87 _086_
*88 _087_
*89 _088_
*90 _089_
*91 _090_
*92 _091_
*93 _092_
*94 _093_
*95 _094_
*96 _095_
*97 _096_
*98 _097_
*99 _098_
*100 _099_
*101 _100_
*102 _101_
*103 _102_
*104 _103_
*105 _104_
*106 _105_
*107 _106_
*108 _107_
*109 _108_
*110 _109_
*111 _110_
*112 _111_
*113 _112_
*114 _113_
*115 _114_
*116 _115_
*117 _116_
*118 _117_
*119 _118_
*120 _119_
*121 _120_
*122 _121_
*123 _122_
*124 _123_
*125 _124_
*126 _125_
*127 _126_
*128 _127_
*129 _128_
*130 _129_
*131 _130_
*132 _131_
*133 _132_
*134 _133_
*135 _134_
*136 _135_
*137 _136_
*138 _137_
*139 _138_
*140 _139_
*141 _140_
*142 _141_
*143 _142_
*144 _143_
*145 _144_
*146 _145_
*147 _146_
*148 _147_
*149 _148_
*150 _149_
*151 _150_
*152 _151_
*153 _152_
*154 _153_
*155 _154_
*156 _155_
*157 _156_
*158 _157_
*159 _158_
*160 _159_
*161 _160_
*162 _161_
*163 _162_
*164 _163_
*165 clk
*166 mem_access_addr[0]
*167 mem_access_addr[10]
*168 mem_access_addr[11]
*169 mem_access_addr[12]
*170 mem_access_addr[13]
*171 mem_access_addr[14]
*172 mem_access_addr[15]
*173 mem_access_addr[1]
*174 mem_access_addr[2]
*175 mem_access_addr[3]
*176 mem_access_addr[4]
*177 mem_access_addr[5]
*178 mem_access_addr[6]
*179 mem_access_addr[7]
*180 mem_access_addr[8]
*181 mem_access_addr[9]
*182 mem_read
*183 net22
*184 net23
*185 net24
*186 net25
*187 net26
*188 net27
*189 net28
*190 net29
*191 net30
*192 net31
*193 net32
*194 net33
*195 net34
*196 net35
*197 net36
*198 net37
*199 mem_write_data[0]
*200 mem_write_data[10]
*201 mem_write_data[11]
*202 mem_write_data[12]
*203 mem_write_data[13]
*204 mem_write_data[14]
*205 mem_write_data[15]
*206 mem_write_data[1]
*207 mem_write_data[2]
*208 mem_write_data[3]
*209 mem_write_data[4]
*210 mem_write_data[5]
*211 mem_write_data[6]
*212 mem_write_data[7]
*213 mem_write_data[8]
*214 mem_write_data[9]
*215 mem_write_en
*216 memory\[0\]\[0\]
*217 memory\[0\]\[10\]
*218 memory\[0\]\[11\]
*219 memory\[0\]\[12\]
*220 memory\[0\]\[13\]
*221 memory\[0\]\[14\]
*222 memory\[0\]\[15\]
*223 memory\[0\]\[1\]
*224 memory\[0\]\[2\]
*225 memory\[0\]\[3\]
*226 memory\[0\]\[4\]
*227 memory\[0\]\[5\]
*228 memory\[0\]\[6\]
*229 memory\[0\]\[7\]
*230 memory\[0\]\[8\]
*231 memory\[0\]\[9\]
*232 memory\[1\]\[0\]
*233 memory\[1\]\[10\]
*234 memory\[1\]\[11\]
*235 memory\[1\]\[12\]
*236 memory\[1\]\[13\]
*237 memory\[1\]\[14\]
*238 memory\[1\]\[15\]
*239 memory\[1\]\[1\]
*240 memory\[1\]\[2\]
*241 memory\[1\]\[3\]
*242 memory\[1\]\[4\]
*243 memory\[1\]\[5\]
*244 memory\[1\]\[6\]
*245 memory\[1\]\[7\]
*246 memory\[1\]\[8\]
*247 memory\[1\]\[9\]
*248 memory\[2\]\[0\]
*249 memory\[2\]\[10\]
*250 memory\[2\]\[11\]
*251 memory\[2\]\[12\]
*252 memory\[2\]\[13\]
*253 memory\[2\]\[14\]
*254 memory\[2\]\[15\]
*255 memory\[2\]\[1\]
*256 memory\[2\]\[2\]
*257 memory\[2\]\[3\]
*258 memory\[2\]\[4\]
*259 memory\[2\]\[5\]
*260 memory\[2\]\[6\]
*261 memory\[2\]\[7\]
*262 memory\[2\]\[8\]
*263 memory\[2\]\[9\]
*264 memory\[3\]\[0\]
*265 memory\[3\]\[10\]
*266 memory\[3\]\[11\]
*267 memory\[3\]\[12\]
*268 memory\[3\]\[13\]
*269 memory\[3\]\[14\]
*270 memory\[3\]\[15\]
*271 memory\[3\]\[1\]
*272 memory\[3\]\[2\]
*273 memory\[3\]\[3\]
*274 memory\[3\]\[4\]
*275 memory\[3\]\[5\]
*276 memory\[3\]\[6\]
*277 memory\[3\]\[7\]
*278 memory\[3\]\[8\]
*279 memory\[3\]\[9\]
*280 memory\[4\]\[0\]
*281 memory\[4\]\[10\]
*282 memory\[4\]\[11\]
*283 memory\[4\]\[12\]
*284 memory\[4\]\[13\]
*285 memory\[4\]\[14\]
*286 memory\[4\]\[15\]
*287 memory\[4\]\[1\]
*288 memory\[4\]\[2\]
*289 memory\[4\]\[3\]
*290 memory\[4\]\[4\]
*291 memory\[4\]\[5\]
*292 memory\[4\]\[6\]
*293 memory\[4\]\[7\]
*294 memory\[4\]\[8\]
*295 memory\[4\]\[9\]
*296 memory\[5\]\[0\]
*297 memory\[5\]\[10\]
*298 memory\[5\]\[11\]
*299 memory\[5\]\[12\]
*300 memory\[5\]\[13\]
*301 memory\[5\]\[14\]
*302 memory\[5\]\[15\]
*303 memory\[5\]\[1\]
*304 memory\[5\]\[2\]
*305 memory\[5\]\[3\]
*306 memory\[5\]\[4\]
*307 memory\[5\]\[5\]
*308 memory\[5\]\[6\]
*309 memory\[5\]\[7\]
*310 memory\[5\]\[8\]
*311 memory\[5\]\[9\]
*312 memory\[6\]\[0\]
*313 memory\[6\]\[10\]
*314 memory\[6\]\[11\]
*315 memory\[6\]\[12\]
*316 memory\[6\]\[13\]
*317 memory\[6\]\[14\]
*318 memory\[6\]\[15\]
*319 memory\[6\]\[1\]
*320 memory\[6\]\[2\]
*321 memory\[6\]\[3\]
*322 memory\[6\]\[4\]
*323 memory\[6\]\[5\]
*324 memory\[6\]\[6\]
*325 memory\[6\]\[7\]
*326 memory\[6\]\[8\]
*327 memory\[6\]\[9\]
*328 memory\[7\]\[0\]
*329 memory\[7\]\[10\]
*330 memory\[7\]\[11\]
*331 memory\[7\]\[12\]
*332 memory\[7\]\[13\]
*333 memory\[7\]\[14\]
*334 memory\[7\]\[15\]
*335 memory\[7\]\[1\]
*336 memory\[7\]\[2\]
*337 memory\[7\]\[3\]
*338 memory\[7\]\[4\]
*339 memory\[7\]\[5\]
*340 memory\[7\]\[6\]
*341 memory\[7\]\[7\]
*342 memory\[7\]\[8\]
*343 memory\[7\]\[9\]
*344 net17
*345 net18
*346 net19
*347 net20
*348 net21
*349 mem_read_data[0]
*350 mem_read_data[10]
*351 mem_read_data[11]
*352 mem_read_data[12]
*353 mem_read_data[13]
*354 mem_read_data[14]
*355 mem_read_data[15]
*356 mem_read_data[1]
*357 mem_read_data[2]
*358 mem_read_data[3]
*359 mem_read_data[4]
*360 mem_read_data[5]
*361 mem_read_data[6]
*362 mem_read_data[7]
*363 mem_read_data[8]
*364 mem_read_data[9]
*365 net59
*366 net61
*367 net51
*368 net52
*369 net53
*370 net54
*371 net55
*372 net56
*373 net57
*374 net58
*375 clknet_0_clk
*376 net60
*377 net62
*378 clknet_4_0_0_clk
*379 clknet_4_1_0_clk
*380 clknet_4_2_0_clk
*381 clknet_4_3_0_clk
*382 clknet_4_4_0_clk
*383 clknet_4_5_0_clk
*384 clknet_4_6_0_clk
*385 clknet_4_7_0_clk
*386 clknet_4_8_0_clk
*387 clknet_4_9_0_clk
*388 clknet_4_10_0_clk
*389 clknet_4_11_0_clk
*390 clknet_4_12_0_clk
*391 clknet_4_13_0_clk
*392 clknet_4_14_0_clk
*393 clknet_4_15_0_clk
*394 TAP_TAPCELL_ROW_3_17
*395 TAP_TAPCELL_ROW_3_16
*396 TAP_TAPCELL_ROW_2_15
*397 TAP_TAPCELL_ROW_2_14
*398 _168_
*399 _169_
*400 TAP_TAPCELL_ROW_2_13
*401 _171_
*402 _172_
*403 _173_
*404 TAP_TAPCELL_ROW_2_12
*405 _175_
*406 _176_
*407 _177_
*408 _178_
*409 _179_
*410 _180_
*411 TAP_TAPCELL_ROW_1_11
*412 _182_
*413 _183_
*414 _184_
*415 TAP_TAPCELL_ROW_1_10
*416 TAP_TAPCELL_ROW_1_9
*417 TAP_TAPCELL_ROW_1_8
*418 _188_
*419 _189_
*420 _190_
*421 TAP_TAPCELL_ROW_0_7
*422 TAP_TAPCELL_ROW_0_6
*423 _193_
*424 TAP_TAPCELL_ROW_0_5
*425 _195_
*426 _196_
*427 _197_
*428 _198_
*429 TAP_TAPCELL_ROW_0_4
*430 TAP_TAPCELL_ROW_0_3
*431 _201_
*432 _202_
*433 _203_
*434 TAP_TAPCELL_ROW_0_2
*435 TAP_TAPCELL_ROW_0_1
*436 _206_
*437 _207_
*438 _208_
*439 _209_
*440 TAP_TAPCELL_ROW_0_0
*441 _211_
*442 _212_
*443 _213_
*444 _214_
*445 _215_
*446 _216_
*447 _217_
*448 _218_
*449 _219_
*450 _220_
*451 _221_
*452 _222_
*453 _223_
*454 _224_
*455 _225_
*456 _226_
*457 _227_
*458 _228_
*459 _229_
*460 _230_
*461 _231_
*462 _232_
*463 _233_
*464 _234_
*465 _235_
*466 _236_
*467 _237_
*468 _238_
*469 _239_
*470 _240_
*471 _241_
*472 _242_
*473 _243_
*474 _244_
*475 _245_
*476 _246_
*477 _247_
*478 _248_
*479 _249_
*480 _250_
*481 _251_
*482 _252_
*483 _253_
*484 _254_
*485 _255_
*486 _256_
*487 _257_
*488 _258_
*489 _259_
*490 _260_
*491 _261_
*492 _262_
*493 _263_
*494 _264_
*495 _265_
*496 _266_
*497 _267_
*498 _268_
*499 _269_
*500 _270_
*501 _271_
*502 _272_
*503 _273_
*504 _274_
*505 _275_
*506 _276_
*507 _277_
*508 _278_
*509 _279_
*510 _280_
*511 _281_
*512 _282_
*513 _283_
*514 _284_
*515 _285_
*516 _286_
*517 _287_
*518 _288_
*519 _289_
*520 _290_
*521 _291_
*522 _292_
*523 _293_
*524 _294_
*525 _295_
*526 _296_
*527 _297_
*528 _298_
*529 _299_
*530 _300_
*531 _301_
*532 _302_
*533 _303_
*534 _304_
*535 _305_
*536 _306_
*537 _307_
*538 _308_
*539 _309_
*540 _310_
*541 _311_
*542 _312_
*543 _313_
*544 _314_
*545 _315_
*546 _316_
*547 _317_
*548 _318_
*549 _319_
*550 _320_
*551 _321_
*552 _322_
*553 _323_
*554 _324_
*555 _325_
*556 _326_
*557 _327_
*558 _328_
*559 _329_
*560 _330_
*561 _331_
*562 _332_
*563 _333_
*564 _334_
*565 _335_
*566 _336_
*567 _337_
*568 _338_
*569 _339_
*570 _340_
*571 _341_
*572 _342_
*573 _343_
*574 memory\[0\]\[0\]\$_DFFE_PP_
*575 memory\[0\]\[10\]\$_DFFE_PP_
*576 memory\[0\]\[11\]\$_DFFE_PP_
*577 memory\[0\]\[12\]\$_DFFE_PP_
*578 memory\[0\]\[13\]\$_DFFE_PP_
*579 memory\[0\]\[14\]\$_DFFE_PP_
*580 memory\[0\]\[15\]\$_DFFE_PP_
*581 memory\[0\]\[1\]\$_DFFE_PP_
*582 memory\[0\]\[2\]\$_DFFE_PP_
*583 memory\[0\]\[3\]\$_DFFE_PP_
*584 memory\[0\]\[4\]\$_DFFE_PP_
*585 memory\[0\]\[5\]\$_DFFE_PP_
*586 memory\[0\]\[6\]\$_DFFE_PP_
*587 memory\[0\]\[7\]\$_DFFE_PP_
*588 memory\[0\]\[8\]\$_DFFE_PP_
*589 memory\[0\]\[9\]\$_DFFE_PP_
*590 memory\[1\]\[0\]\$_DFFE_PP_
*591 memory\[1\]\[10\]\$_DFFE_PP_
*592 memory\[1\]\[11\]\$_DFFE_PP_
*593 memory\[1\]\[12\]\$_DFFE_PP_
*594 memory\[1\]\[13\]\$_DFFE_PP_
*595 memory\[1\]\[14\]\$_DFFE_PP_
*596 memory\[1\]\[15\]\$_DFFE_PP_
*597 memory\[1\]\[1\]\$_DFFE_PP_
*598 memory\[1\]\[2\]\$_DFFE_PP_
*599 memory\[1\]\[3\]\$_DFFE_PP_
*600 memory\[1\]\[4\]\$_DFFE_PP_
*601 memory\[1\]\[5\]\$_DFFE_PP_
*602 memory\[1\]\[6\]\$_DFFE_PP_
*603 memory\[1\]\[7\]\$_DFFE_PP_
*604 memory\[1\]\[8\]\$_DFFE_PP_
*605 memory\[1\]\[9\]\$_DFFE_PP_
*606 memory\[2\]\[0\]\$_DFFE_PP_
*607 memory\[2\]\[10\]\$_DFFE_PP_
*608 memory\[2\]\[11\]\$_DFFE_PP_
*609 memory\[2\]\[12\]\$_DFFE_PP_
*610 memory\[2\]\[13\]\$_DFFE_PP_
*611 memory\[2\]\[14\]\$_DFFE_PP_
*612 memory\[2\]\[15\]\$_DFFE_PP_
*613 memory\[2\]\[1\]\$_DFFE_PP_
*614 memory\[2\]\[2\]\$_DFFE_PP_
*615 memory\[2\]\[3\]\$_DFFE_PP_
*616 memory\[2\]\[4\]\$_DFFE_PP_
*617 memory\[2\]\[5\]\$_DFFE_PP_
*618 memory\[2\]\[6\]\$_DFFE_PP_
*619 memory\[2\]\[7\]\$_DFFE_PP_
*620 memory\[2\]\[8\]\$_DFFE_PP_
*621 memory\[2\]\[9\]\$_DFFE_PP_
*622 memory\[3\]\[0\]\$_DFFE_PP_
*623 memory\[3\]\[10\]\$_DFFE_PP_
*624 memory\[3\]\[11\]\$_DFFE_PP_
*625 memory\[3\]\[12\]\$_DFFE_PP_
*626 memory\[3\]\[13\]\$_DFFE_PP_
*627 memory\[3\]\[14\]\$_DFFE_PP_
*628 memory\[3\]\[15\]\$_DFFE_PP_
*629 memory\[3\]\[1\]\$_DFFE_PP_
*630 memory\[3\]\[2\]\$_DFFE_PP_
*631 memory\[3\]\[3\]\$_DFFE_PP_
*632 memory\[3\]\[4\]\$_DFFE_PP_
*633 memory\[3\]\[5\]\$_DFFE_PP_
*634 memory\[3\]\[6\]\$_DFFE_PP_
*635 memory\[3\]\[7\]\$_DFFE_PP_
*636 memory\[3\]\[8\]\$_DFFE_PP_
*637 memory\[3\]\[9\]\$_DFFE_PP_
*638 memory\[4\]\[0\]\$_DFFE_PP_
*639 memory\[4\]\[10\]\$_DFFE_PP_
*640 memory\[4\]\[11\]\$_DFFE_PP_
*641 memory\[4\]\[12\]\$_DFFE_PP_
*642 memory\[4\]\[13\]\$_DFFE_PP_
*643 memory\[4\]\[14\]\$_DFFE_PP_
*644 memory\[4\]\[15\]\$_DFFE_PP_
*645 memory\[4\]\[1\]\$_DFFE_PP_
*646 memory\[4\]\[2\]\$_DFFE_PP_
*647 memory\[4\]\[3\]\$_DFFE_PP_
*648 memory\[4\]\[4\]\$_DFFE_PP_
*649 memory\[4\]\[5\]\$_DFFE_PP_
*650 memory\[4\]\[6\]\$_DFFE_PP_
*651 memory\[4\]\[7\]\$_DFFE_PP_
*652 memory\[4\]\[8\]\$_DFFE_PP_
*653 memory\[4\]\[9\]\$_DFFE_PP_
*654 memory\[5\]\[0\]\$_DFFE_PP_
*655 memory\[5\]\[10\]\$_DFFE_PP_
*656 memory\[5\]\[11\]\$_DFFE_PP_
*657 memory\[5\]\[12\]\$_DFFE_PP_
*658 memory\[5\]\[13\]\$_DFFE_PP_
*659 memory\[5\]\[14\]\$_DFFE_PP_
*660 memory\[5\]\[15\]\$_DFFE_PP_
*661 memory\[5\]\[1\]\$_DFFE_PP_
*662 memory\[5\]\[2\]\$_DFFE_PP_
*663 memory\[5\]\[3\]\$_DFFE_PP_
*664 memory\[5\]\[4\]\$_DFFE_PP_
*665 memory\[5\]\[5\]\$_DFFE_PP_
*666 memory\[5\]\[6\]\$_DFFE_PP_
*667 memory\[5\]\[7\]\$_DFFE_PP_
*668 memory\[5\]\[8\]\$_DFFE_PP_
*669 memory\[5\]\[9\]\$_DFFE_PP_
*670 memory\[6\]\[0\]\$_DFFE_PP_
*671 memory\[6\]\[10\]\$_DFFE_PP_
*672 memory\[6\]\[11\]\$_DFFE_PP_
*673 memory\[6\]\[12\]\$_DFFE_PP_
*674 memory\[6\]\[13\]\$_DFFE_PP_
*675 memory\[6\]\[14\]\$_DFFE_PP_
*676 memory\[6\]\[15\]\$_DFFE_PP_
*677 memory\[6\]\[1\]\$_DFFE_PP_
*678 memory\[6\]\[2\]\$_DFFE_PP_
*679 memory\[6\]\[3\]\$_DFFE_PP_
*680 memory\[6\]\[4\]\$_DFFE_PP_
*681 memory\[6\]\[5\]\$_DFFE_PP_
*682 memory\[6\]\[6\]\$_DFFE_PP_
*683 memory\[6\]\[7\]\$_DFFE_PP_
*684 memory\[6\]\[8\]\$_DFFE_PP_
*685 memory\[6\]\[9\]\$_DFFE_PP_
*686 memory\[7\]\[0\]\$_DFFE_PP_
*687 memory\[7\]\[10\]\$_DFFE_PP_
*688 memory\[7\]\[11\]\$_DFFE_PP_
*689 memory\[7\]\[12\]\$_DFFE_PP_
*690 memory\[7\]\[13\]\$_DFFE_PP_
*691 memory\[7\]\[14\]\$_DFFE_PP_
*692 memory\[7\]\[15\]\$_DFFE_PP_
*693 memory\[7\]\[1\]\$_DFFE_PP_
*694 memory\[7\]\[2\]\$_DFFE_PP_
*695 memory\[7\]\[3\]\$_DFFE_PP_
*696 memory\[7\]\[4\]\$_DFFE_PP_
*697 memory\[7\]\[5\]\$_DFFE_PP_
*698 memory\[7\]\[6\]\$_DFFE_PP_
*699 memory\[7\]\[7\]\$_DFFE_PP_
*700 memory\[7\]\[8\]\$_DFFE_PP_
*701 memory\[7\]\[9\]\$_DFFE_PP_
*702 TAP_TAPCELL_ROW_3_18
*703 TAP_TAPCELL_ROW_3_19
*704 TAP_TAPCELL_ROW_4_20
*705 TAP_TAPCELL_ROW_4_21
*706 TAP_TAPCELL_ROW_4_22
*707 TAP_TAPCELL_ROW_4_23
*708 TAP_TAPCELL_ROW_5_24
*709 TAP_TAPCELL_ROW_5_25
*710 TAP_TAPCELL_ROW_5_26
*711 TAP_TAPCELL_ROW_5_27
*712 TAP_TAPCELL_ROW_6_28
*713 TAP_TAPCELL_ROW_6_29
*714 TAP_TAPCELL_ROW_6_30
*715 TAP_TAPCELL_ROW_6_31
*716 TAP_TAPCELL_ROW_7_32
*717 TAP_TAPCELL_ROW_7_33
*718 TAP_TAPCELL_ROW_7_34
*719 TAP_TAPCELL_ROW_7_35
*720 TAP_TAPCELL_ROW_8_36
*721 TAP_TAPCELL_ROW_8_37
*722 TAP_TAPCELL_ROW_8_38
*723 TAP_TAPCELL_ROW_8_39
*724 TAP_TAPCELL_ROW_9_40
*725 TAP_TAPCELL_ROW_9_41
*726 TAP_TAPCELL_ROW_9_42
*727 TAP_TAPCELL_ROW_9_43
*728 TAP_TAPCELL_ROW_10_44
*729 TAP_TAPCELL_ROW_10_45
*730 TAP_TAPCELL_ROW_10_46
*731 TAP_TAPCELL_ROW_10_47
*732 TAP_TAPCELL_ROW_11_48
*733 TAP_TAPCELL_ROW_11_49
*734 TAP_TAPCELL_ROW_11_50
*735 TAP_TAPCELL_ROW_11_51
*736 TAP_TAPCELL_ROW_12_52
*737 TAP_TAPCELL_ROW_12_53
*738 TAP_TAPCELL_ROW_12_54
*739 TAP_TAPCELL_ROW_12_55
*740 TAP_TAPCELL_ROW_13_56
*741 TAP_TAPCELL_ROW_13_57
*742 TAP_TAPCELL_ROW_13_58
*743 TAP_TAPCELL_ROW_13_59
*744 TAP_TAPCELL_ROW_14_60
*745 TAP_TAPCELL_ROW_14_61
*746 TAP_TAPCELL_ROW_14_62
*747 TAP_TAPCELL_ROW_14_63
*748 TAP_TAPCELL_ROW_15_64
*749 TAP_TAPCELL_ROW_15_65
*750 TAP_TAPCELL_ROW_15_66
*751 TAP_TAPCELL_ROW_15_67
*752 TAP_TAPCELL_ROW_16_68
*753 TAP_TAPCELL_ROW_16_69
*754 TAP_TAPCELL_ROW_16_70
*755 TAP_TAPCELL_ROW_16_71
*756 TAP_TAPCELL_ROW_17_72
*757 TAP_TAPCELL_ROW_17_73
*758 TAP_TAPCELL_ROW_17_74
*759 TAP_TAPCELL_ROW_17_75
*760 TAP_TAPCELL_ROW_18_76
*761 TAP_TAPCELL_ROW_18_77
*762 TAP_TAPCELL_ROW_18_78
*763 TAP_TAPCELL_ROW_18_79
*764 TAP_TAPCELL_ROW_19_80
*765 TAP_TAPCELL_ROW_19_81
*766 TAP_TAPCELL_ROW_19_82
*767 TAP_TAPCELL_ROW_19_83
*768 TAP_TAPCELL_ROW_20_84
*769 TAP_TAPCELL_ROW_20_85
*770 TAP_TAPCELL_ROW_20_86
*771 TAP_TAPCELL_ROW_20_87
*772 TAP_TAPCELL_ROW_21_88
*773 TAP_TAPCELL_ROW_21_89
*774 TAP_TAPCELL_ROW_21_90
*775 TAP_TAPCELL_ROW_21_91
*776 TAP_TAPCELL_ROW_22_92
*777 TAP_TAPCELL_ROW_22_93
*778 TAP_TAPCELL_ROW_22_94
*779 TAP_TAPCELL_ROW_22_95
*780 TAP_TAPCELL_ROW_23_96
*781 TAP_TAPCELL_ROW_23_97
*782 TAP_TAPCELL_ROW_23_98
*783 TAP_TAPCELL_ROW_23_99
*784 TAP_TAPCELL_ROW_24_100
*785 TAP_TAPCELL_ROW_24_101
*786 TAP_TAPCELL_ROW_24_102
*787 TAP_TAPCELL_ROW_24_103
*788 TAP_TAPCELL_ROW_25_104
*789 TAP_TAPCELL_ROW_25_105
*790 TAP_TAPCELL_ROW_25_106
*791 TAP_TAPCELL_ROW_25_107
*792 TAP_TAPCELL_ROW_26_108
*793 TAP_TAPCELL_ROW_26_109
*794 TAP_TAPCELL_ROW_26_110
*795 TAP_TAPCELL_ROW_26_111
*796 TAP_TAPCELL_ROW_27_112
*797 TAP_TAPCELL_ROW_27_113
*798 TAP_TAPCELL_ROW_27_114
*799 TAP_TAPCELL_ROW_27_115
*800 TAP_TAPCELL_ROW_28_116
*801 TAP_TAPCELL_ROW_28_117
*802 TAP_TAPCELL_ROW_28_118
*803 TAP_TAPCELL_ROW_28_119
*804 TAP_TAPCELL_ROW_29_120
*805 TAP_TAPCELL_ROW_29_121
*806 TAP_TAPCELL_ROW_29_122
*807 TAP_TAPCELL_ROW_29_123
*808 TAP_TAPCELL_ROW_30_124
*809 TAP_TAPCELL_ROW_30_125
*810 TAP_TAPCELL_ROW_30_126
*811 TAP_TAPCELL_ROW_30_127
*812 TAP_TAPCELL_ROW_31_128
*813 TAP_TAPCELL_ROW_31_129
*814 TAP_TAPCELL_ROW_31_130
*815 TAP_TAPCELL_ROW_31_131
*816 TAP_TAPCELL_ROW_32_132
*817 TAP_TAPCELL_ROW_32_133
*818 TAP_TAPCELL_ROW_32_134
*819 TAP_TAPCELL_ROW_32_135
*820 TAP_TAPCELL_ROW_33_136
*821 TAP_TAPCELL_ROW_33_137
*822 TAP_TAPCELL_ROW_33_138
*823 TAP_TAPCELL_ROW_33_139
*824 TAP_TAPCELL_ROW_34_140
*825 TAP_TAPCELL_ROW_34_141
*826 TAP_TAPCELL_ROW_34_142
*827 TAP_TAPCELL_ROW_34_143
*828 TAP_TAPCELL_ROW_35_144
*829 TAP_TAPCELL_ROW_35_145
*830 TAP_TAPCELL_ROW_35_146
*831 TAP_TAPCELL_ROW_35_147
*832 TAP_TAPCELL_ROW_36_148
*833 TAP_TAPCELL_ROW_36_149
*834 TAP_TAPCELL_ROW_36_150
*835 TAP_TAPCELL_ROW_36_151
*836 TAP_TAPCELL_ROW_37_152
*837 TAP_TAPCELL_ROW_37_153
*838 TAP_TAPCELL_ROW_37_154
*839 TAP_TAPCELL_ROW_37_155
*840 TAP_TAPCELL_ROW_38_156
*841 TAP_TAPCELL_ROW_38_157
*842 TAP_TAPCELL_ROW_38_158
*843 TAP_TAPCELL_ROW_38_159
*844 TAP_TAPCELL_ROW_39_160
*845 TAP_TAPCELL_ROW_39_161
*846 TAP_TAPCELL_ROW_39_162
*847 TAP_TAPCELL_ROW_39_163
*848 TAP_TAPCELL_ROW_40_164
*849 TAP_TAPCELL_ROW_40_165
*850 TAP_TAPCELL_ROW_40_166
*851 TAP_TAPCELL_ROW_40_167
*852 TAP_TAPCELL_ROW_41_168
*853 TAP_TAPCELL_ROW_41_169
*854 TAP_TAPCELL_ROW_41_170
*855 TAP_TAPCELL_ROW_41_171
*856 TAP_TAPCELL_ROW_42_172
*857 TAP_TAPCELL_ROW_42_173
*858 TAP_TAPCELL_ROW_42_174
*859 TAP_TAPCELL_ROW_42_175
*860 TAP_TAPCELL_ROW_43_176
*861 TAP_TAPCELL_ROW_43_177
*862 TAP_TAPCELL_ROW_43_178
*863 TAP_TAPCELL_ROW_43_179
*864 TAP_TAPCELL_ROW_43_180
*865 TAP_TAPCELL_ROW_43_181
*866 TAP_TAPCELL_ROW_43_182
*867 TAP_TAPCELL_ROW_43_183
*868 input1
*869 input2
*870 input3
*871 input4
*872 input5
*873 input6
*874 input7
*875 input8
*876 input9
*877 input10
*878 input11
*879 input12
*880 input13
*881 input14
*882 input15
*883 input16
*884 input17
*885 input18
*886 input19
*887 input20
*888 input21
*889 output22
*890 output23
*891 output24
*892 output25
*893 output26
*894 output27
*895 output28
*896 output29
*897 output30
*898 output31
*899 output32
*900 output33
*901 output34
*902 output35
*903 output36
*904 output37
*905 place59
*906 place61
*907 place51
*908 place52
*909 place53
*910 place54
*911 place55
*912 place56
*913 place57
*914 place58
*915 clkbuf_0_clk
*916 place60
*917 place62
*918 clkbuf_4_0_0_clk
*919 clkbuf_4_1_0_clk
*920 clkbuf_4_2_0_clk
*921 clkbuf_4_3_0_clk
*922 clkbuf_4_4_0_clk
*923 clkbuf_4_5_0_clk
*924 clkbuf_4_6_0_clk
*925 clkbuf_4_7_0_clk
*926 clkbuf_4_8_0_clk
*927 clkbuf_4_9_0_clk
*928 clkbuf_4_10_0_clk
*929 clkbuf_4_11_0_clk
*930 clkbuf_4_12_0_clk
*931 clkbuf_4_13_0_clk
*932 clkbuf_4_14_0_clk
*933 clkbuf_4_15_0_clk
*934 clkload0
*935 clkload1
*936 clkload2
*937 clkload3
*938 clkload4
*939 clkload5
*940 clkload6
*941 clkload7
*942 clkload8
*943 clkload9
*944 clkload10
*945 clkload11
*946 clkload12
*947 clkload13
*948 FILLER_0_0
*949 FILLER_0_8
*950 FILLER_0_16
*951 FILLER_0_24
*952 FILLER_0_28
*953 FILLER_0_31
*954 FILLER_0_39
*955 FILLER_0_47
*956 FILLER_0_55
*957 FILLER_0_59
*958 FILLER_0_61
*959 FILLER_0_69
*960 FILLER_0_78
*961 FILLER_0_86
*962 FILLER_0_91
*963 FILLER_0_101
*964 FILLER_0_109
*965 FILLER_0_119
*966 FILLER_0_121
*967 FILLER_0_129
*968 FILLER_0_137
*969 FILLER_0_145
*970 FILLER_0_149
*971 FILLER_0_151
*972 FILLER_0_159
*973 FILLER_0_167
*974 FILLER_0_175
*975 FILLER_0_179
*976 FILLER_0_181
*977 FILLER_0_189
*978 FILLER_0_197
*979 FILLER_0_205
*980 FILLER_0_209
*981 FILLER_0_211
*982 FILLER_0_219
*983 FILLER_0_227
*984 FILLER_0_235
*985 FILLER_0_239
*986 FILLER_0_241
*987 FILLER_0_249
*988 FILLER_0_257
*989 FILLER_0_261
*990 FILLER_0_263
*991 FILLER_1_0
*992 FILLER_1_8
*993 FILLER_1_16
*994 FILLER_1_24
*995 FILLER_1_32
*996 FILLER_1_40
*997 FILLER_1_48
*998 FILLER_1_56
*999 FILLER_1_61
*1000 FILLER_1_69
*1001 FILLER_1_77
*1002 FILLER_1_85
*1003 FILLER_1_93
*1004 FILLER_1_101
*1005 FILLER_1_109
*1006 FILLER_1_117
*1007 FILLER_1_119
*1008 FILLER_1_121
*1009 FILLER_1_129
*1010 FILLER_1_133
*1011 FILLER_1_142
*1012 FILLER_1_150
*1013 FILLER_1_158
*1014 FILLER_1_166
*1015 FILLER_1_174
*1016 FILLER_1_178
*1017 FILLER_1_181
*1018 FILLER_1_183
*1019 FILLER_1_192
*1020 FILLER_1_200
*1021 FILLER_1_208
*1022 FILLER_1_216
*1023 FILLER_1_224
*1024 FILLER_1_232
*1025 FILLER_1_241
*1026 FILLER_1_249
*1027 FILLER_1_257
*1028 FILLER_1_261
*1029 FILLER_1_263
*1030 FILLER_2_0
*1031 FILLER_2_8
*1032 FILLER_2_16
*1033 FILLER_2_24
*1034 FILLER_2_28
*1035 FILLER_2_31
*1036 FILLER_2_39
*1037 FILLER_2_47
*1038 FILLER_2_55
*1039 FILLER_2_63
*1040 FILLER_2_71
*1041 FILLER_2_79
*1042 FILLER_2_87
*1043 FILLER_2_89
*1044 FILLER_2_91
*1045 FILLER_2_99
*1046 FILLER_2_107
*1047 FILLER_2_111
*1048 FILLER_2_113
*1049 FILLER_2_122
*1050 FILLER_2_130
*1051 FILLER_2_138
*1052 FILLER_2_146
*1053 FILLER_2_151
*1054 FILLER_2_159
*1055 FILLER_2_167
*1056 FILLER_2_175
*1057 FILLER_2_183
*1058 FILLER_2_191
*1059 FILLER_2_199
*1060 FILLER_2_207
*1061 FILLER_2_209
*1062 FILLER_2_211
*1063 FILLER_2_219
*1064 FILLER_2_227
*1065 FILLER_2_235
*1066 FILLER_2_243
*1067 FILLER_2_251
*1068 FILLER_2_259
*1069 FILLER_2_263
*1070 FILLER_3_0
*1071 FILLER_3_8
*1072 FILLER_3_16
*1073 FILLER_3_24
*1074 FILLER_3_32
*1075 FILLER_3_40
*1076 FILLER_3_48
*1077 FILLER_3_56
*1078 FILLER_3_61
*1079 FILLER_3_69
*1080 FILLER_3_77
*1081 FILLER_3_85
*1082 FILLER_3_93
*1083 FILLER_3_101
*1084 FILLER_3_109
*1085 FILLER_3_117
*1086 FILLER_3_119
*1087 FILLER_3_121
*1088 FILLER_3_129
*1089 FILLER_3_137
*1090 FILLER_3_145
*1091 FILLER_3_153
*1092 FILLER_3_161
*1093 FILLER_3_169
*1094 FILLER_3_177
*1095 FILLER_3_179
*1096 FILLER_3_181
*1097 FILLER_3_189
*1098 FILLER_3_197
*1099 FILLER_3_205
*1100 FILLER_3_213
*1101 FILLER_3_221
*1102 FILLER_3_229
*1103 FILLER_3_237
*1104 FILLER_3_239
*1105 FILLER_3_241
*1106 FILLER_3_249
*1107 FILLER_3_257
*1108 FILLER_3_261
*1109 FILLER_3_263
*1110 FILLER_4_0
*1111 FILLER_4_8
*1112 FILLER_4_16
*1113 FILLER_4_24
*1114 FILLER_4_28
*1115 FILLER_4_31
*1116 FILLER_4_39
*1117 FILLER_4_47
*1118 FILLER_4_55
*1119 FILLER_4_63
*1120 FILLER_4_71
*1121 FILLER_4_79
*1122 FILLER_4_87
*1123 FILLER_4_89
*1124 FILLER_4_91
*1125 FILLER_4_99
*1126 FILLER_4_107
*1127 FILLER_4_115
*1128 FILLER_4_123
*1129 FILLER_4_131
*1130 FILLER_4_139
*1131 FILLER_4_147
*1132 FILLER_4_149
*1133 FILLER_4_151
*1134 FILLER_4_159
*1135 FILLER_4_167
*1136 FILLER_4_176
*1137 FILLER_4_184
*1138 FILLER_4_192
*1139 FILLER_4_200
*1140 FILLER_4_208
*1141 FILLER_4_211
*1142 FILLER_4_219
*1143 FILLER_4_227
*1144 FILLER_4_235
*1145 FILLER_4_243
*1146 FILLER_4_251
*1147 FILLER_4_259
*1148 FILLER_4_263
*1149 FILLER_5_0
*1150 FILLER_5_8
*1151 FILLER_5_16
*1152 FILLER_5_24
*1153 FILLER_5_32
*1154 FILLER_5_40
*1155 FILLER_5_48
*1156 FILLER_5_56
*1157 FILLER_5_61
*1158 FILLER_5_69
*1159 FILLER_5_77
*1160 FILLER_5_85
*1161 FILLER_5_93
*1162 FILLER_5_101
*1163 FILLER_5_109
*1164 FILLER_5_117
*1165 FILLER_5_119
*1166 FILLER_5_121
*1167 FILLER_5_129
*1168 FILLER_5_137
*1169 FILLER_5_145
*1170 FILLER_5_153
*1171 FILLER_5_161
*1172 FILLER_5_169
*1173 FILLER_5_177
*1174 FILLER_5_179
*1175 FILLER_5_181
*1176 FILLER_5_189
*1177 FILLER_5_197
*1178 FILLER_5_205
*1179 FILLER_5_213
*1180 FILLER_5_221
*1181 FILLER_5_229
*1182 FILLER_5_237
*1183 FILLER_5_239
*1184 FILLER_5_241
*1185 FILLER_5_249
*1186 FILLER_5_257
*1187 FILLER_5_261
*1188 FILLER_5_263
*1189 FILLER_6_0
*1190 FILLER_6_8
*1191 FILLER_6_16
*1192 FILLER_6_24
*1193 FILLER_6_28
*1194 FILLER_6_31
*1195 FILLER_6_35
*1196 FILLER_6_60
*1197 FILLER_6_68
*1198 FILLER_6_76
*1199 FILLER_6_84
*1200 FILLER_6_88
*1201 FILLER_6_91
*1202 FILLER_6_99
*1203 FILLER_6_101
*1204 FILLER_6_175
*1205 FILLER_6_183
*1206 FILLER_6_191
*1207 FILLER_6_199
*1208 FILLER_6_207
*1209 FILLER_6_209
*1210 FILLER_6_211
*1211 FILLER_6_219
*1212 FILLER_6_227
*1213 FILLER_6_235
*1214 FILLER_6_243
*1215 FILLER_6_251
*1216 FILLER_6_259
*1217 FILLER_6_263
*1218 FILLER_7_0
*1219 FILLER_7_8
*1220 FILLER_7_16
*1221 FILLER_7_24
*1222 FILLER_7_32
*1223 FILLER_7_58
*1224 FILLER_7_61
*1225 FILLER_7_102
*1226 FILLER_7_110
*1227 FILLER_7_118
*1228 FILLER_7_169
*1229 FILLER_7_177
*1230 FILLER_7_179
*1231 FILLER_7_181
*1232 FILLER_7_189
*1233 FILLER_7_197
*1234 FILLER_7_205
*1235 FILLER_7_213
*1236 FILLER_7_221
*1237 FILLER_7_229
*1238 FILLER_7_237
*1239 FILLER_7_239
*1240 FILLER_7_241
*1241 FILLER_7_249
*1242 FILLER_7_257
*1243 FILLER_7_261
*1244 FILLER_7_263
*1245 FILLER_8_0
*1246 FILLER_8_4
*1247 FILLER_8_40
*1248 FILLER_8_48
*1249 FILLER_8_61
*1250 FILLER_8_63
*1251 FILLER_8_88
*1252 FILLER_8_91
*1253 FILLER_8_93
*1254 FILLER_8_136
*1255 FILLER_8_140
*1256 FILLER_8_151
*1257 FILLER_8_159
*1258 FILLER_8_167
*1259 FILLER_8_177
*1260 FILLER_8_185
*1261 FILLER_8_220
*1262 FILLER_8_228
*1263 FILLER_8_236
*1264 FILLER_8_244
*1265 FILLER_8_252
*1266 FILLER_8_260
*1267 FILLER_9_0
*1268 FILLER_9_8
*1269 FILLER_9_12
*1270 FILLER_9_45
*1271 FILLER_9_53
*1272 FILLER_9_57
*1273 FILLER_9_59
*1274 FILLER_9_61
*1275 FILLER_9_69
*1276 FILLER_9_76
*1277 FILLER_9_78
*1278 FILLER_9_103
*1279 FILLER_9_111
*1280 FILLER_9_119
*1281 FILLER_9_121
*1282 FILLER_9_125
*1283 FILLER_9_134
*1284 FILLER_9_139
*1285 FILLER_9_147
*1286 FILLER_9_155
*1287 FILLER_9_181
*1288 FILLER_9_218
*1289 FILLER_9_226
*1290 FILLER_9_234
*1291 FILLER_9_238
*1292 FILLER_9_241
*1293 FILLER_9_249
*1294 FILLER_9_257
*1295 FILLER_9_261
*1296 FILLER_9_263
*1297 FILLER_10_0
*1298 FILLER_10_4
*1299 FILLER_10_31
*1300 FILLER_10_44
*1301 FILLER_10_52
*1302 FILLER_10_60
*1303 FILLER_10_88
*1304 FILLER_10_104
*1305 FILLER_10_112
*1306 FILLER_10_120
*1307 FILLER_10_128
*1308 FILLER_10_133
*1309 FILLER_10_141
*1310 FILLER_10_149
*1311 FILLER_10_151
*1312 FILLER_10_159
*1313 FILLER_10_167
*1314 FILLER_10_193
*1315 FILLER_10_204
*1316 FILLER_10_208
*1317 FILLER_10_211
*1318 FILLER_10_219
*1319 FILLER_10_227
*1320 FILLER_10_235
*1321 FILLER_10_243
*1322 FILLER_10_251
*1323 FILLER_10_259
*1324 FILLER_10_263
*1325 FILLER_11_0
*1326 FILLER_11_10
*1327 FILLER_11_18
*1328 FILLER_11_34
*1329 FILLER_11_69
*1330 FILLER_11_105
*1331 FILLER_11_113
*1332 FILLER_11_117
*1333 FILLER_11_119
*1334 FILLER_11_121
*1335 FILLER_11_125
*1336 FILLER_11_127
*1337 FILLER_11_135
*1338 FILLER_11_143
*1339 FILLER_11_151
*1340 FILLER_11_159
*1341 FILLER_11_167
*1342 FILLER_11_175
*1343 FILLER_11_186
*1344 FILLER_11_194
*1345 FILLER_11_198
*1346 FILLER_11_223
*1347 FILLER_11_231
*1348 FILLER_11_239
*1349 FILLER_11_241
*1350 FILLER_11_249
*1351 FILLER_11_257
*1352 FILLER_11_261
*1353 FILLER_11_263
*1354 FILLER_12_0
*1355 FILLER_12_4
*1356 FILLER_12_31
*1357 FILLER_12_35
*1358 FILLER_12_37
*1359 FILLER_12_62
*1360 FILLER_12_139
*1361 FILLER_12_147
*1362 FILLER_12_149
*1363 FILLER_12_199
*1364 FILLER_12_207
*1365 FILLER_12_209
*1366 FILLER_12_211
*1367 FILLER_12_213
*1368 FILLER_12_223
*1369 FILLER_12_231
*1370 FILLER_12_239
*1371 FILLER_12_247
*1372 FILLER_12_255
*1373 FILLER_12_263
*1374 FILLER_13_0
*1375 FILLER_13_8
*1376 FILLER_13_16
*1377 FILLER_13_24
*1378 FILLER_13_28
*1379 FILLER_13_30
*1380 FILLER_13_39
*1381 FILLER_13_41
*1382 FILLER_13_49
*1383 FILLER_13_57
*1384 FILLER_13_59
*1385 FILLER_13_61
*1386 FILLER_13_69
*1387 FILLER_13_77
*1388 FILLER_13_85
*1389 FILLER_13_121
*1390 FILLER_13_125
*1391 FILLER_13_142
*1392 FILLER_13_179
*1393 FILLER_13_185
*1394 FILLER_13_195
*1395 FILLER_13_199
*1396 FILLER_13_224
*1397 FILLER_13_232
*1398 FILLER_13_241
*1399 FILLER_13_249
*1400 FILLER_13_257
*1401 FILLER_13_261
*1402 FILLER_13_263
*1403 FILLER_14_0
*1404 FILLER_14_8
*1405 FILLER_14_16
*1406 FILLER_14_24
*1407 FILLER_14_28
*1408 FILLER_14_31
*1409 FILLER_14_35
*1410 FILLER_14_37
*1411 FILLER_14_62
*1412 FILLER_14_70
*1413 FILLER_14_78
*1414 FILLER_14_86
*1415 FILLER_14_135
*1416 FILLER_14_139
*1417 FILLER_14_145
*1418 FILLER_14_149
*1419 FILLER_14_151
*1420 FILLER_14_159
*1421 FILLER_14_167
*1422 FILLER_14_193
*1423 FILLER_14_201
*1424 FILLER_14_206
*1425 FILLER_14_211
*1426 FILLER_14_219
*1427 FILLER_14_223
*1428 FILLER_14_232
*1429 FILLER_14_240
*1430 FILLER_14_248
*1431 FILLER_14_256
*1432 FILLER_15_0
*1433 FILLER_15_8
*1434 FILLER_15_61
*1435 FILLER_15_69
*1436 FILLER_15_73
*1437 FILLER_15_99
*1438 FILLER_15_107
*1439 FILLER_15_115
*1440 FILLER_15_119
*1441 FILLER_15_121
*1442 FILLER_15_129
*1443 FILLER_15_133
*1444 FILLER_15_161
*1445 FILLER_15_165
*1446 FILLER_15_173
*1447 FILLER_15_177
*1448 FILLER_15_179
*1449 FILLER_15_181
*1450 FILLER_15_189
*1451 FILLER_15_197
*1452 FILLER_15_205
*1453 FILLER_15_231
*1454 FILLER_15_239
*1455 FILLER_15_241
*1456 FILLER_15_253
*1457 FILLER_15_261
*1458 FILLER_15_263
*1459 FILLER_16_0
*1460 FILLER_16_4
*1461 FILLER_16_91
*1462 FILLER_16_100
*1463 FILLER_16_108
*1464 FILLER_16_116
*1465 FILLER_16_124
*1466 FILLER_16_128
*1467 FILLER_16_151
*1468 FILLER_16_159
*1469 FILLER_16_167
*1470 FILLER_16_175
*1471 FILLER_16_179
*1472 FILLER_16_190
*1473 FILLER_16_194
*1474 FILLER_16_196
*1475 FILLER_16_206
*1476 FILLER_16_235
*1477 FILLER_16_243
*1478 FILLER_16_251
*1479 FILLER_16_259
*1480 FILLER_16_263
*1481 FILLER_17_0
*1482 FILLER_17_9
*1483 FILLER_17_34
*1484 FILLER_17_70
*1485 FILLER_17_78
*1486 FILLER_17_82
*1487 FILLER_17_84
*1488 FILLER_17_105
*1489 FILLER_17_113
*1490 FILLER_17_117
*1491 FILLER_17_119
*1492 FILLER_17_121
*1493 FILLER_17_125
*1494 FILLER_17_167
*1495 FILLER_17_175
*1496 FILLER_17_207
*1497 FILLER_17_209
*1498 FILLER_17_214
*1499 FILLER_17_218
*1500 FILLER_17_229
*1501 FILLER_17_237
*1502 FILLER_17_239
*1503 FILLER_17_241
*1504 FILLER_17_249
*1505 FILLER_17_257
*1506 FILLER_17_261
*1507 FILLER_17_263
*1508 FILLER_18_0
*1509 FILLER_18_4
*1510 FILLER_18_14
*1511 FILLER_18_22
*1512 FILLER_18_26
*1513 FILLER_18_68
*1514 FILLER_18_76
*1515 FILLER_18_91
*1516 FILLER_18_99
*1517 FILLER_18_107
*1518 FILLER_18_115
*1519 FILLER_18_157
*1520 FILLER_18_216
*1521 FILLER_18_232
*1522 FILLER_18_240
*1523 FILLER_18_248
*1524 FILLER_18_256
*1525 FILLER_19_0
*1526 FILLER_19_32
*1527 FILLER_19_61