*SPEF "ieee 1481-1999"
*DESIGN "Sign_Extender"
*DATE "18:01:20 Thursday November 13, 2025"
*VENDOR "The OpenROAD Project"
*PROGRAM "OpenROAD"
*VERSION "edf00dff99f6c40d67a30c0e22a8191c5d2ed9d6"
*DESIGN_FLOW "NAME_SCOPE LOCAL" "PIN_CAP NONE"
*DIVIDER /
*DELIMITER :
*BUS_DELIMITER []
*T_UNIT 1 NS
*C_UNIT 1 PF
*R_UNIT 1 OHM
*L_UNIT 1 HENRY

*NAME_MAP
*1 ImmExt[0]
*2 ImmExt[10]
*3 ImmExt[11]
*4 ImmExt[12]
*5 ImmExt[13]
*6 ImmExt[14]
*7 ImmExt[15]
*8 ImmExt[1]
*9 ImmExt[2]
*10 ImmExt[3]
*11 ImmExt[4]
*12 ImmExt[5]
*13 ImmExt[6]
*14 ImmExt[7]
*15 ImmExt[8]
*16 ImmExt[9]
*17 ImmSrc[0]
*18 ImmSrc[1]
*21 instr[0]
*22 instr[10]
*23 instr[11]
*24 instr[12]
*25 instr[13]
*26 instr[14]
*27 instr[15]
*28 instr[1]
*29 instr[2]
*30 instr[3]
*31 instr[4]
*32 instr[5]
*33 instr[6]
*34 instr[7]
*35 instr[8]
*36 instr[9]
*37 _00_
*38 _01_
*39 _02_
*40 _03_
*41 _04_
*42 _05_
*43 net1
*44 net10
*45 net11
*46 net12
*47 net13
*48 net14
*49 net15
*50 net16
*51 net17
*52 net18
*53 net19
*54 net2
*55 net20
*56 net21
*57 net22
*58 net23
*59 net24
*60 net25
*61 net26
*62 net27
*63 net28
*64 net29
*65 net3
*66 net30
*67 net31
*68 net4
*69 net5
*70 net6
*71 net7
*72 net8
*73 net9
*74 FILLER_0_15
*75 FILLER_0_27
*76 FILLER_0_29
*77 FILLER_0_3
*78 FILLER_0_35
*79 FILLER_0_42
*80 FILLER_0_48
*81 FILLER_0_55
*82 FILLER_0_57
*83 FILLER_0_63
*84 FILLER_0_70
*85 FILLER_0_77
*86 FILLER_0_83
*87 FILLER_0_85
*88 FILLER_10_19
*89 FILLER_10_27
*90 FILLER_10_29
*91 FILLER_10_41
*92 FILLER_10_53
*93 FILLER_10_65
*94 FILLER_10_7
*95 FILLER_10_77
*96 FILLER_10_83
*97 FILLER_10_85
*98 FILLER_11_19
*99 FILLER_11_31
*100 FILLER_11_43
*101 FILLER_11_55
*102 FILLER_11_57
*103 FILLER_11_69
*104 FILLER_11_7
*105 FILLER_11_81
*106 FILLER_11_92
*107 FILLER_12_18
*108 FILLER_12_26
*109 FILLER_12_29
*110 FILLER_12_33
*111 FILLER_12_47
*112 FILLER_12_6
*113 FILLER_12_65
*114 FILLER_12_77
*115 FILLER_12_83
*116 FILLER_12_85
*117 FILLER_12_93
*118 FILLER_13_15
*119 FILLER_13_27
*120 FILLER_13_3
*121 FILLER_13_39
*122 FILLER_13_51
*123 FILLER_13_55
*124 FILLER_13_61
*125 FILLER_13_73
*126 FILLER_13_85
*127 FILLER_14_15
*128 FILLER_14_27
*129 FILLER_14_29
*130 FILLER_14_3
*131 FILLER_14_41
*132 FILLER_14_53
*133 FILLER_14_65
*134 FILLER_14_73
*135 FILLER_14_81
*136 FILLER_14_85
*137 FILLER_15_15
*138 FILLER_15_27
*139 FILLER_15_3
*140 FILLER_15_39
*141 FILLER_15_51
*142 FILLER_15_55
*143 FILLER_15_57
*144 FILLER_15_69
*145 FILLER_15_81
*146 FILLER_15_93
*147 FILLER_16_15
*148 FILLER_16_27
*149 FILLER_16_29
*150 FILLER_16_3
*151 FILLER_16_37
*152 FILLER_16_42
*153 FILLER_16_48
*154 FILLER_16_57
*155 FILLER_16_63
*156 FILLER_16_70
*157 FILLER_16_76
*158 FILLER_16_85
*159 FILLER_1_15
*160 FILLER_1_27
*161 FILLER_1_3
*162 FILLER_1_35
*163 FILLER_1_47
*164 FILLER_1_55
*165 FILLER_1_57
*166 FILLER_1_69
*167 FILLER_1_81
*168 FILLER_1_93
*169 FILLER_2_15
*170 FILLER_2_27
*171 FILLER_2_29
*172 FILLER_2_3
*173 FILLER_2_46
*174 FILLER_2_58
*175 FILLER_2_77
*176 FILLER_2_83
*177 FILLER_2_85
*178 FILLER_2_93
*179 FILLER_3_15
*180 FILLER_3_27
*181 FILLER_3_3
*182 FILLER_3_39
*183 FILLER_3_51
*184 FILLER_3_55
*185 FILLER_3_57
*186 FILLER_3_69
*187 FILLER_3_81
*188 FILLER_3_93
*189 FILLER_4_15
*190 FILLER_4_27
*191 FILLER_4_29
*192 FILLER_4_3
*193 FILLER_4_41
*194 FILLER_4_53
*195 FILLER_4_65
*196 FILLER_4_73
*197 FILLER_4_85
*198 FILLER_4_93
*199 FILLER_5_19
*200 FILLER_5_27
*201 FILLER_5_42
*202 FILLER_5_54
*203 FILLER_5_57
*204 FILLER_5_69
*205 FILLER_5_7
*206 FILLER_5_81
*207 FILLER_5_93
*208 FILLER_6_19
*209 FILLER_6_27
*210 FILLER_6_29
*211 FILLER_6_41
*212 FILLER_6_53
*213 FILLER_6_65
*214 FILLER_6_7
*215 FILLER_6_77
*216 FILLER_6_83
*217 FILLER_6_85
*218 FILLER_7_19
*219 FILLER_7_33
*220 FILLER_7_45
*221 FILLER_7_57
*222 FILLER_7_7
*223 FILLER_7_75
*224 FILLER_7_87
*225 FILLER_8_15
*226 FILLER_8_27
*227 FILLER_8_29
*228 FILLER_8_3
*229 FILLER_8_40
*230 FILLER_8_46
*231 FILLER_8_65
*232 FILLER_8_77
*233 FILLER_8_83
*234 FILLER_8_85
*235 FILLER_9_18
*236 FILLER_9_26
*237 FILLER_9_35
*238 FILLER_9_47
*239 FILLER_9_55
*240 FILLER_9_57
*241 FILLER_9_6
*242 FILLER_9_69
*243 FILLER_9_77
*244 FILLER_9_87
*245 FILLER_9_93
*246 PHY_EDGE_ROW_0_Left_17
*247 PHY_EDGE_ROW_0_Right_0
*248 PHY_EDGE_ROW_10_Left_27
*249 PHY_EDGE_ROW_10_Right_10
*250 PHY_EDGE_ROW_11_Left_28
*251 PHY_EDGE_ROW_11_Right_11
*252 PHY_EDGE_ROW_12_Left_29
*253 PHY_EDGE_ROW_12_Right_12
*254 PHY_EDGE_ROW_13_Left_30
*255 PHY_EDGE_ROW_13_Right_13
*256 PHY_EDGE_ROW_14_Left_31
*257 PHY_EDGE_ROW_14_Right_14
*258 PHY_EDGE_ROW_15_Left_32
*259 PHY_EDGE_ROW_15_Right_15
*260 PHY_EDGE_ROW_16_Left_33
*261 PHY_EDGE_ROW_16_Right_16
*262 PHY_EDGE_ROW_1_Left_18
*263 PHY_EDGE_ROW_1_Right_1
*264 PHY_EDGE_ROW_2_Left_19
*265 PHY_EDGE_ROW_2_Right_2
*266 PHY_EDGE_ROW_3_Left_20
*267 PHY_EDGE_ROW_3_Right_3
*268 PHY_EDGE_ROW_4_Left_21
*269 PHY_EDGE_ROW_4_Right_4
*270 PHY_EDGE_ROW_5_Left_22
*271 PHY_EDGE_ROW_5_Right_5
*272 PHY_EDGE_ROW_6_Left_23
*273 PHY_EDGE_ROW_6_Right_6
*274 PHY_EDGE_ROW_7_Left_24
*275 PHY_EDGE_ROW_7_Right_7
*276 PHY_EDGE_ROW_8_Left_25
*277 PHY_EDGE_ROW_8_Right_8
*278 PHY_EDGE_ROW_9_Left_26
*279 PHY_EDGE_ROW_9_Right_9
*280 TAP_TAPCELL_ROW_0_34
*281 TAP_TAPCELL_ROW_0_35
*282 TAP_TAPCELL_ROW_0_36
*283 TAP_TAPCELL_ROW_10_50
*284 TAP_TAPCELL_ROW_10_51
*285 TAP_TAPCELL_ROW_11_52
*286 TAP_TAPCELL_ROW_12_53
*287 TAP_TAPCELL_ROW_12_54
*288 TAP_TAPCELL_ROW_13_55
*289 TAP_TAPCELL_ROW_14_56
*290 TAP_TAPCELL_ROW_14_57
*291 TAP_TAPCELL_ROW_15_58
*292 TAP_TAPCELL_ROW_16_59
*293 TAP_TAPCELL_ROW_16_60
*294 TAP_TAPCELL_ROW_16_61
*295 TAP_TAPCELL_ROW_1_37
*296 TAP_TAPCELL_ROW_2_38
*297 TAP_TAPCELL_ROW_2_39
*298 TAP_TAPCELL_ROW_3_40
*299 TAP_TAPCELL_ROW_4_41
*300 TAP_TAPCELL_ROW_4_42
*301 TAP_TAPCELL_ROW_5_43
*302 TAP_TAPCELL_ROW_6_44
*303 TAP_TAPCELL_ROW_6_45
*304 TAP_TAPCELL_ROW_7_46
*305 TAP_TAPCELL_ROW_8_47
*306 TAP_TAPCELL_ROW_8_48
*307 TAP_TAPCELL_ROW_9_49
*308 _06_
*309 _07_
*310 _08_
*311 _09_
*312 _10_
*313 _11_
*314 _12_
*315 _13_
*316 _14_
*317 _15_
*318 _16_
*319 _17_
*320 _18_
*321 _19_
*322 _20_
*323 _21_
*324 _22_
*325 _23_
*326 _24_
*327 _25_
*328 _26_
*329 _27_
*330 fanout30
*331 fanout31
*332 input1
*333 input10
*334 input11
*335 input12
*336 input2
*337 input3
*338 input4
*339 input5
*340 input6
*341 input7
*342 input8
*343 input9
*344 max_cap29
*345 output13
*346 output14
*347 output15
*348 output16
*349 output17
*350 output18
*351 output19
*352 output20
*353 output21
*354 output22
*355 output23
*356 output24
*357 output25
*358 output26
*359 output27
*360 output28

*PORTS
ImmExt[0] O
ImmExt[10] O
ImmExt[11] O
ImmExt[12] O
ImmExt[13] O
ImmExt[14] O
ImmExt[15] O
ImmExt[1] O
ImmExt[2] O
ImmExt[3] O
ImmExt[4] O
ImmExt[5] O
ImmExt[6] O
ImmExt[7] O
ImmExt[8] O
ImmExt[9] O
ImmSrc[0] I
ImmSrc[1] I
instr[0] I
instr[10] I
instr[11] I
instr[12] I
instr[13] I
instr[14] I
instr[15] I
instr[1] I
instr[2] I
instr[3] I
instr[4] I
instr[5] I
instr[6] I
instr[7] I
instr[8] I
instr[9] I

*D_NET *1 0.000874266
*CONN
*P ImmExt[0] O
*I *345:X O *D sky130_fd_sc_hd__buf_2
*CAP
1 ImmExt[0] 0.000437133
2 *345:X 0.000437133
3 ImmExt[0] ImmExt[9] 0
*RES
1 *345:X ImmExt[0] 21.6393 
*END

*D_NET *2 0.000568496
*CONN
*P ImmExt[10] O
*I *346:X O *D sky130_fd_sc_hd__buf_2
*CAP
1 ImmExt[10] 0.000194943
2 *346:X 0.000194943
3 ImmExt[10] ImmExt[15] 9.54485e-05
4 ImmExt[10] ImmExt[1] 0
5 ImmExt[10] *337:A 8.31618e-05
6 ImmExt[10] *346:A 0
*RES
1 *346:X ImmExt[10] 18.8021 
*END

*D_NET *3 0.000880865
*CONN
*P ImmExt[11] O
*I *347:X O *D sky130_fd_sc_hd__buf_2
*CAP
1 ImmExt[11] 0.000440432
2 *347:X 0.000440432
3 ImmExt[11] ImmExt[12] 0
*RES
1 *347:X ImmExt[11] 21.6393 
*END

*D_NET *4 0.00096436
*CONN
*P ImmExt[12] O
*I *348:X O *D sky130_fd_sc_hd__buf_2
*CAP
1 ImmExt[12] 0.000463817
2 *348:X 0.000463817
3 ImmExt[12] *339:A 0
4 ImmExt[12] *347:A 3.67257e-05
5 ImmExt[11] ImmExt[12] 0
*RES
1 *348:X ImmExt[12] 22.05 
*END

*D_NET *5 0.0008581
*CONN
*P ImmExt[13] O
*I *349:X O *D sky130_fd_sc_hd__buf_2
*CAP
1 ImmExt[13] 0.00042905
2 *349:X 0.00042905
3 ImmExt[13] *340:A 0
*RES
1 *349:X ImmExt[13] 21.8893 
*END

*D_NET *6 0.000501293
*CONN
*P ImmExt[14] O
*I *350:X O *D sky130_fd_sc_hd__buf_2
*CAP
1 ImmExt[14] 0.00016719
2 *350:X 0.00016719
3 ImmExt[14] ImmExt[1] 8.37518e-05
4 ImmExt[14] *343:A 8.31618e-05
*RES
1 *350:X ImmExt[14] 18.1949 
*END

*D_NET *7 0.000521118
*CONN
*P ImmExt[15] O
*I *351:X O *D sky130_fd_sc_hd__buf_2
*CAP
1 ImmExt[15] 0.000174675
2 *351:X 0.000174675
3 ImmExt[15] *342:A 7.63188e-05
4 ImmExt[10] ImmExt[15] 9.54485e-05
*RES
1 *351:X ImmExt[15] 18.4985 
*END

*D_NET *8 0.000495525
*CONN
*P ImmExt[1] O
*I *352:X O *D sky130_fd_sc_hd__buf_2
*CAP
1 ImmExt[1] 0.000163019
2 *352:X 0.000163019
3 ImmExt[1] *337:A 8.57347e-05
4 ImmExt[10] ImmExt[1] 0
5 ImmExt[14] ImmExt[1] 8.37518e-05
*RES
1 *352:X ImmExt[1] 18.1949 
*END

*D_NET *9 0.000728416
*CONN
*P ImmExt[2] O
*I *353:X O *D sky130_fd_sc_hd__buf_2
*CAP
1 ImmExt[2] 0.000349824
2 *353:X 0.000349824
3 ImmExt[2] ImmExt[3] 2.87684e-05
*RES
1 *353:X ImmExt[2] 20.891 
*END

*D_NET *10 0.000510265
*CONN
*P ImmExt[3] O
*I *354:X O *D sky130_fd_sc_hd__buf_2
*CAP
1 ImmExt[3] 0.000224779
2 *354:X 0.000224779
3 ImmExt[3] ImmExt[5] 3.19385e-05
4 ImmExt[3] *341:A 0
5 ImmExt[2] ImmExt[3] 2.87684e-05
*RES
1 *354:X ImmExt[3] 18.1949 
*END

*D_NET *11 0.000724456
*CONN
*P ImmExt[4] O
*I *355:X O *D sky130_fd_sc_hd__buf_2
*CAP
1 ImmExt[4] 0.000336546
2 *355:X 0.000336546
3 ImmExt[4] *336:A 2.87684e-05
4 ImmExt[4] *341:A 2.25951e-05
*RES
1 *355:X ImmExt[4] 20.891 
*END

*D_NET *12 0.000724586
*CONN
*P ImmExt[5] O
*I *356:X O *D sky130_fd_sc_hd__buf_2
*CAP
1 ImmExt[5] 0.000335026
2 *356:X 0.000335026
3 ImmExt[5] *341:A 2.25951e-05
4 ImmExt[3] ImmExt[5] 3.19385e-05
*RES
1 *356:X ImmExt[5] 20.891 
*END

*D_NET *13 0.000880645
*CONN
*P ImmExt[6] O
*I *357:X O *D sky130_fd_sc_hd__buf_2
*CAP
1 ImmExt[6] 0.000440323
2 *357:X 0.000440323
3 ImmExt[6] ImmExt[7] 0
*RES
1 *357:X ImmExt[6] 21.6393 
*END

*D_NET *14 0.000880645
*CONN
*P ImmExt[7] O
*I *358:X O *D sky130_fd_sc_hd__buf_2
*CAP
1 ImmExt[7] 0.000440323
2 *358:X 0.000440323
3 ImmExt[7] ImmExt[8] 0
4 ImmExt[6] ImmExt[7] 0
*RES
1 *358:X ImmExt[7] 21.6393 
*END

*D_NET *15 0.000946169
*CONN
*P ImmExt[8] O
*I *359:X O *D sky130_fd_sc_hd__buf_2
*CAP
1 ImmExt[8] 0.000473085
2 *359:X 0.000473085
3 ImmExt[8] *338:A 0
4 ImmExt[7] ImmExt[8] 0
*RES
1 *359:X ImmExt[8] 22.05 
*END

*D_NET *16 0.000950145
*CONN
*P ImmExt[9] O
*I *360:X O *D sky130_fd_sc_hd__buf_2
*CAP
1 ImmExt[9] 0.000463702
2 *360:X 0.000463702
3 ImmExt[9] *335:A 0
4 ImmExt[9] *360:A 2.27416e-05
5 ImmExt[0] ImmExt[9] 0
*RES
1 *360:X ImmExt[9] 22.05 
*END

*D_NET *17 0.000612169
*CONN
*P ImmSrc[0] I
*I *332:A I *D sky130_fd_sc_hd__buf_1
*CAP
1 ImmSrc[0] 0.000294787
2 *332:A 0.000294787
3 *332:A *336:A 2.25951e-05
*RES
1 ImmSrc[0] *332:A 20.7838 
*END

*D_NET *18 0.000594407
*CONN
*P ImmSrc[1] I
*I *336:A I *D sky130_fd_sc_hd__clkbuf_2
*CAP
1 ImmSrc[1] 0.000271522
2 *336:A 0.000271522
3 *336:A *341:A 0
4 ImmExt[4] *336:A 2.87684e-05
5 *332:A *336:A 2.25951e-05
*RES
1 ImmSrc[1] *336:A 19.1056 
*END

*D_NET *22 0.000669757
*CONN
*P instr[10] I
*I *337:A I *D sky130_fd_sc_hd__clkbuf_1
*CAP
1 instr[10] 0.00025043
2 *337:A 0.00025043
3 ImmExt[10] *337:A 8.31618e-05
4 ImmExt[1] *337:A 8.57347e-05
*RES
1 instr[10] *337:A 20.2479 
*END

*D_NET *23 0.000946163
*CONN
*P instr[11] I
*I *338:A I *D sky130_fd_sc_hd__clkbuf_1
*CAP
1 instr[11] 0.000463436
2 *338:A 0.000463436
3 *338:A *339:A 0
4 *338:A *68:10 1.92905e-05
5 ImmExt[8] *338:A 0
*RES
1 instr[11] *338:A 22.6571 
*END

*D_NET *24 0.000953436
*CONN
*P instr[12] I
*I *339:A I *D sky130_fd_sc_hd__clkbuf_1
*CAP
1 instr[12] 0.000472219
2 *339:A 0.000472219
3 *339:A *348:A 0
4 *339:A *68:10 5.30637e-06
5 *339:A *69:12 3.69047e-06
6 ImmExt[12] *339:A 0
7 *338:A *339:A 0
*RES
1 instr[12] *339:A 22.9071 
*END

*D_NET *25 0.000876623
*CONN
*P instr[13] I
*I *340:A I *D sky130_fd_sc_hd__buf_1
*CAP
1 instr[13] 0.000438311
2 *340:A 0.000438311
3 ImmExt[13] *340:A 0
*RES
1 instr[13] *340:A 22.1393 
*END

*D_NET *26 0.000681693
*CONN
*P instr[14] I
*I *341:A I *D sky130_fd_sc_hd__buf_1
*CAP
1 instr[14] 0.000318251
2 *341:A 0.000318251
3 ImmExt[3] *341:A 0
4 ImmExt[4] *341:A 2.25951e-05
5 ImmExt[5] *341:A 2.25951e-05
6 *336:A *341:A 0
*RES
1 instr[14] *341:A 20.2479 
*END

*D_NET *27 0.000438943
*CONN
*P instr[15] I
*I *342:A I *D sky130_fd_sc_hd__clkbuf_1
*CAP
1 instr[15] 0.000181312
2 *342:A 0.000181312
3 *342:A *329:A 0
4 ImmExt[15] *342:A 7.63188e-05
*RES
1 instr[15] *342:A 18.1229 
*END

*D_NET *33 0.000618192
*CONN
*P instr[6] I
*I *343:A I *D sky130_fd_sc_hd__clkbuf_1
*CAP
1 instr[6] 0.000225934
2 *343:A 0.000225934
3 *343:A *333:A 8.31618e-05
4 ImmExt[14] *343:A 8.31618e-05
*RES
1 instr[6] *343:A 19.6407 
*END

*D_NET *34 0.000652798
*CONN
*P instr[7] I
*I *333:A I *D sky130_fd_sc_hd__clkbuf_1
*CAP
1 instr[7] 0.000210578
2 *333:A 0.000210578
3 *333:A *319:A0 6.27457e-05
4 *333:A *334:A 8.57347e-05
5 *343:A *333:A 8.31618e-05
*RES
1 instr[7] *333:A 19.9443 
*END

*D_NET *35 0.000423724
*CONN
*P instr[8] I
*I *334:A I *D sky130_fd_sc_hd__clkbuf_1
*CAP
1 instr[8] 0.000164055
2 *334:A 0.000164055
3 *334:A *319:A0 9.87983e-06
4 *333:A *334:A 8.57347e-05
*RES
1 instr[8] *334:A 18.1229 
*END

*D_NET *36 0.000977983
*CONN
*P instr[9] I
*I *335:A I *D sky130_fd_sc_hd__clkbuf_1
*CAP
1 instr[9] 0.000488991
2 *335:A 0.000488991
3 ImmExt[9] *335:A 0
*RES
1 instr[9] *335:A 22.9607 
*END

*D_NET *37 0.000126884
*CONN
*I *309:B1_N I *D sky130_fd_sc_hd__a21bo_1
*I *308:X O *D sky130_fd_sc_hd__or3b_1
*CAP
1 *309:B1_N 3.48685e-05
2 *308:X 3.48685e-05
3 *309:B1_N *326:A1 5.71472e-05
*RES
1 *308:X *309:B1_N 19.1357 
*END

*D_NET *38 0.000459579
*CONN
*I *311:B1_N I *D sky130_fd_sc_hd__a21bo_1
*I *310:X O *D sky130_fd_sc_hd__or3b_1
*CAP
1 *311:B1_N 0.000150005
2 *310:X 0.000150005
3 *311:B1_N *310:C_N 2.79092e-05
4 *311:B1_N *312:C_N 0.000131659
*RES
1 *310:X *311:B1_N 29.9929 
*END

*D_NET *39 0.000752934
*CONN
*I *315:B1 I *D sky130_fd_sc_hd__a21o_1
*I *344:A I *D sky130_fd_sc_hd__buf_1
*I *312:Y O *D sky130_fd_sc_hd__nor3b_1
*CAP
1 *315:B1 0.000100426
2 *344:A 0.000198935
3 *312:Y 0
4 *39:4 0.000299361
5 *315:B1 *315:A2 0
6 *315:B1 *54:25 0
7 *315:B1 *71:10 7.83587e-05
8 *344:A *312:A 1.59373e-05
9 *344:A *312:C_N 5.99152e-05
*RES
1 *312:Y *39:4 9.3 
2 *39:4 *344:A 13.05 
3 *39:4 *315:B1 20.2464 
*END

*D_NET *40 0.0114801
*CONN
*I *321:S I *D sky130_fd_sc_hd__mux2_1
*I *326:A2 I *D sky130_fd_sc_hd__a21o_1
*I *322:S I *D sky130_fd_sc_hd__mux2_1
*I *318:S I *D sky130_fd_sc_hd__mux2_1
*I *319:S I *D sky130_fd_sc_hd__mux2_1
*I *320:S I *D sky130_fd_sc_hd__mux2_1
*I *324:S I *D sky130_fd_sc_hd__mux2_1
*I *323:S I *D sky130_fd_sc_hd__mux2_1
*I *328:A2 I *D sky130_fd_sc_hd__a21o_1
*I *317:Y O *D sky130_fd_sc_hd__nand2b_4
*CAP
1 *321:S 0.000321756
2 *326:A2 0.000315928
3 *322:S 7.88906e-05
4 *318:S 3.08975e-05
5 *319:S 0
6 *320:S 0
7 *324:S 0.000129
8 *323:S 5.30464e-05
9 *328:A2 0.000139634
10 *317:Y 0.00016143
11 *40:99 0.00103826
12 *40:51 0.000524832
13 *40:49 0.000492889
14 *40:47 0.000469113
15 *40:37 0.000877652
16 *40:33 0.000921221
17 *40:18 0.000756587
18 *40:10 0.000864373
19 *321:S *345:A 0.000128154
20 *321:S *46:12 3.32631e-05
21 *321:S *67:8 2.28428e-05
22 *322:S *311:A2 8.16036e-05
23 *322:S *66:23 0
24 *323:S *323:A1 2.84026e-05
25 *323:S *66:35 2.59355e-05
26 *324:S *313:A2 6.98302e-05
27 *324:S *314:A2 0
28 *324:S *324:A1 0.000102463
29 *324:S *68:10 0.000151333
30 *324:S *69:12 0
31 *326:A2 *308:B 0.000230475
32 *326:A2 *308:C_N 0.000104094
33 *326:A2 *309:A1 9.90431e-05
34 *326:A2 *309:A2 1.24368e-05
35 *326:A2 *326:A1 0.00017918
36 *326:A2 *70:27 5.52238e-05
37 *328:A2 *66:23 9.71532e-05
38 *328:A2 *66:25 0.000113038
39 *328:A2 *66:27 1.02504e-05
40 *40:10 *310:A 0.000320024
41 *40:10 *312:C_N 4.69963e-05
42 *40:10 *67:14 2.56694e-05
43 *40:10 *67:16 0.000320024
44 *40:18 *66:23 0.000101545
45 *40:33 *312:C_N 1.07719e-05
46 *40:37 *311:A2 9.33907e-05
47 *40:37 *318:A0 0.000126439
48 *40:37 *66:23 0
49 *40:37 *66:25 0
50 *40:37 *66:27 0
51 *40:47 *318:A0 1.76039e-05
52 *40:47 *318:A1 7.77751e-05
53 *40:47 *320:A0 8.46829e-05
54 *40:47 *357:A 0.000320738
55 *40:47 *66:27 0
56 *40:47 *66:31 0
57 *40:49 *320:A0 0.000391373
58 *40:51 *320:A0 0.000144773
59 *40:51 *66:35 0.000401786
60 *40:99 *309:A2 0
61 *40:99 *345:A 1.02504e-05
62 *40:99 *66:19 0
63 *40:99 *66:21 0
64 *40:99 *66:23 0
65 *40:99 *67:8 2.8266e-06
66 *40:99 *67:10 1.65558e-05
67 *40:99 *67:14 0.0002466
*RES
1 *317:Y *40:10 19.3714 
2 *40:10 *40:18 13.3393 
3 *40:18 *328:A2 16.6571 
4 *40:18 *40:33 13.6429 
5 *40:33 *40:37 14.6429 
6 *40:37 *40:47 16.2857 
7 *40:47 *40:49 3.82143 
8 *40:49 *40:51 8.33929 
9 *40:51 *323:S 10.2464 
10 *40:51 *324:S 21.6929 
11 *40:49 *320:S 9.3 
12 *40:47 *319:S 9.3 
13 *40:37 *318:S 9.83571 
14 *40:33 *322:S 15.7464 
15 *40:10 *40:99 8.92857 
16 *40:99 *326:A2 21.9071 
17 *40:99 *321:S 19.8357 
*END

*D_NET *41 0.000292441
*CONN
*I *326:B1 I *D sky130_fd_sc_hd__a21o_1
*I *325:X O *D sky130_fd_sc_hd__and3b_1
*CAP
1 *326:B1 0.000107123
2 *325:X 0.000107123
3 *326:B1 *70:27 7.8195e-05
*RES
1 *325:X *326:B1 20.6893 
*END

*D_NET *42 0.00139265
*CONN
*I *328:B1 I *D sky130_fd_sc_hd__a21o_1
*I *327:X O *D sky130_fd_sc_hd__and3b_1
*CAP
1 *328:B1 0.000313228
2 *327:X 0.000313228
3 *328:B1 *310:C_N 0.00014285
4 *328:B1 *311:A1 0.000247216
5 *328:B1 *311:A2 0.000275499
6 *328:B1 *352:A 0.000100625
*RES
1 *327:X *328:B1 27.2964 
*END

*D_NET *43 0.00497531
*CONN
*I *331:A I *D sky130_fd_sc_hd__buf_2
*I *315:A1 I *D sky130_fd_sc_hd__a21o_1
*I *325:A_N I *D sky130_fd_sc_hd__and3b_1
*I *332:X O *D sky130_fd_sc_hd__buf_1
*CAP
1 *331:A 0.000592588
2 *315:A1 0.000403208
3 *325:A_N 0
4 *332:X 0.000738752
5 *43:17 0.00112201
6 *43:8 0.000864966
7 *315:A1 *308:C_N 0
8 *315:A1 *315:A2 0.000634475
9 *315:A1 *54:25 0.000370526
10 *331:A *315:A2 4.73656e-05
11 *331:A *349:A 0.000151333
12 *43:17 *325:C 1.58163e-05
13 *43:17 *70:27 3.42658e-05
*RES
1 *332:X *43:8 21.7643 
2 *43:8 *325:A_N 9.3 
3 *43:8 *43:17 6.67857 
4 *43:17 *315:A1 23.1929 
5 *43:17 *331:A 23.8714 
*END

*D_NET *44 0.00243739
*CONN
*I *319:A0 I *D sky130_fd_sc_hd__mux2_1
*I *333:X O *D sky130_fd_sc_hd__clkbuf_1
*CAP
1 *319:A0 0.000667632
2 *333:X 0.000667632
3 *319:A0 *319:A1 5.71472e-05
4 *319:A0 *320:A0 0.000972351
5 *333:A *319:A0 6.27457e-05
6 *334:A *319:A0 9.87983e-06
*RES
1 *333:X *319:A0 41.4393 
*END

*D_NET *45 0.0026994
*CONN
*I *320:A0 I *D sky130_fd_sc_hd__mux2_1
*I *334:X O *D sky130_fd_sc_hd__clkbuf_1
*CAP
1 *320:A0 0.000366681
2 *334:X 0.000366681
3 *320:A0 *319:A1 4.14279e-05
4 *320:A0 *66:33 0.000274288
5 *320:A0 *66:35 5.71472e-05
6 *319:A0 *320:A0 0.000972351
7 *40:47 *320:A0 8.46829e-05
8 *40:49 *320:A0 0.000391373
9 *40:51 *320:A0 0.000144773
*RES
1 *334:X *320:A0 32.1893 
*END

*D_NET *46 0.00180971
*CONN
*I *321:A0 I *D sky130_fd_sc_hd__mux2_1
*I *309:A2 I *D sky130_fd_sc_hd__a21bo_1
*I *335:X O *D sky130_fd_sc_hd__clkbuf_1
*CAP
1 *321:A0 0
2 *309:A2 0.000236305
3 *335:X 0.0004772
4 *46:12 0.000713505
5 *309:A2 *326:A1 0.000151071
6 *309:A2 *345:A 3.18676e-05
7 *309:A2 *360:A 0
8 *309:A2 *66:8 2.58997e-05
9 *309:A2 *66:19 9.24491e-05
10 *46:12 *360:A 0
11 *46:12 *66:8 3.57163e-05
12 *321:S *46:12 3.32631e-05
13 *326:A2 *309:A2 1.24368e-05
14 *40:99 *309:A2 0
*RES
1 *335:X *46:12 26.675 
2 *46:12 *309:A2 23.7464 
3 *46:12 *321:A0 9.3 
*END

*D_NET *47 0.00159056
*CONN
*I *345:A I *D sky130_fd_sc_hd__buf_2
*I *309:X O *D sky130_fd_sc_hd__a21bo_1
*CAP
1 *345:A 0.000403189
2 *309:X 0.000403189
3 *345:A *360:A 0.000613905
4 *309:A2 *345:A 3.18676e-05
5 *321:S *345:A 0.000128154
6 *40:99 *345:A 1.02504e-05
*RES
1 *309:X *345:A 37.6 
*END

*D_NET *48 0.000563425
*CONN
*I *346:A I *D sky130_fd_sc_hd__buf_2
*I *322:X O *D sky130_fd_sc_hd__mux2_1
*CAP
1 *346:A 0.000281712
2 *322:X 0.000281712
3 ImmExt[10] *346:A 0
*RES
1 *322:X *346:A 32.2429 
*END

*D_NET *49 0.0011116
*CONN
*I *347:A I *D sky130_fd_sc_hd__buf_2
*I *323:X O *D sky130_fd_sc_hd__mux2_1
*CAP
1 *347:A 0.000397104
2 *323:X 0.000397104
3 *347:A *314:A2 7.6644e-05
4 *347:A *348:A 0.000128161
5 *347:A *69:12 7.58571e-05
6 ImmExt[12] *347:A 3.67257e-05
*RES
1 *323:X *347:A 35.225 
*END

*D_NET *50 0.000295708
*CONN
*I *348:A I *D sky130_fd_sc_hd__buf_2
*I *324:X O *D sky130_fd_sc_hd__mux2_1
*CAP
1 *348:A 8.37736e-05
2 *324:X 8.37736e-05
3 *339:A *348:A 0
4 *347:A *348:A 0.000128161
*RES
1 *324:X *348:A 29.5464 
*END

*D_NET *51 0.00131348
*CONN
*I *349:A I *D sky130_fd_sc_hd__buf_2
*I *326:X O *D sky130_fd_sc_hd__a21o_1
*CAP
1 *349:A 0.000552775
2 *326:X 0.000552775
3 *349:A *70:27 5.65955e-05
4 *331:A *349:A 0.000151333
*RES
1 *326:X *349:A 37.6 
*END

*D_NET *52 0.00178977
*CONN
*I *350:A I *D sky130_fd_sc_hd__buf_2
*I *328:X O *D sky130_fd_sc_hd__a21o_1
*CAP
1 *350:A 0.000662817
2 *328:X 0.000662817
3 *350:A *352:A 0.000464137
*RES
1 *328:X *350:A 37.475 
*END

*D_NET *53 0.000189121
*CONN
*I *351:A I *D sky130_fd_sc_hd__buf_2
*I *329:X O *D sky130_fd_sc_hd__clkbuf_1
*CAP
1 *351:A 9.45603e-05
2 *329:X 9.45603e-05
*RES
1 *329:X *351:A 20.2786 
*END

*D_NET *54 0.00719292
*CONN
*I *308:A I *D sky130_fd_sc_hd__or3b_1
*I *310:A I *D sky130_fd_sc_hd__or3b_1
*I *317:B I *D sky130_fd_sc_hd__nand2b_4
*I *327:C I *D sky130_fd_sc_hd__and3b_1
*I *312:A I *D sky130_fd_sc_hd__nor3b_1
*I *325:C I *D sky130_fd_sc_hd__and3b_1
*I *336:X O *D sky130_fd_sc_hd__clkbuf_2
*CAP
1 *308:A 0.000478027
2 *310:A 7.47455e-05
3 *317:B 0
4 *327:C 0
5 *312:A 0.000222287
6 *325:C 0.000114255
7 *336:X 0.000838685
8 *54:59 0.000221629
9 *54:46 0.000444909
10 *54:25 0.000888764
11 *54:21 0.000954997
12 *54:6 0.00106146
13 *308:A *67:14 0
14 *310:A *312:C_N 0.000170964
15 *310:A *67:22 0
16 *312:A *312:C_N 0.000176745
17 *312:A *64:8 9.25014e-06
18 *325:C *315:A2 9.97164e-05
19 *54:25 *315:A2 2.49484e-05
20 *54:46 *311:A1 0.000142856
21 *54:46 *327:A_N 5.52238e-05
22 *54:46 *64:8 0.000100831
23 *54:46 *64:14 9.25014e-06
24 *54:46 *67:32 0.000228514
25 *54:46 *71:16 0.000108749
26 *54:59 *310:C_N 0
27 *54:59 *311:A1 4.38128e-05
28 *54:59 *67:83 0
29 *315:A1 *54:25 0.000370526
30 *315:B1 *54:25 0
31 *344:A *312:A 1.59373e-05
32 *40:10 *310:A 0.000320024
33 *43:17 *325:C 1.58163e-05
*RES
1 *336:X *54:6 22.1571 
2 *54:6 *325:C 20.175 
3 *54:6 *54:21 1.35714 
4 *54:21 *54:25 12.6696 
5 *54:25 *312:A 17.8268 
6 *54:25 *54:46 11.7589 
7 *54:46 *327:C 9.3 
8 *54:46 *54:59 11.4821 
9 *54:59 *317:B 9.3 
10 *54:59 *310:A 12.7286 
11 *54:21 *308:A 25.7107 
*END

*D_NET *55 0.0014861
*CONN
*I *352:A I *D sky130_fd_sc_hd__buf_2
*I *311:X O *D sky130_fd_sc_hd__a21bo_1
*CAP
1 *352:A 0.00037614
2 *311:X 0.00037614
3 *352:A *311:A2 0.000169054
4 *328:B1 *352:A 0.000100625
5 *350:A *352:A 0.000464137
*RES
1 *311:X *352:A 29.4214 
*END

*D_NET *56 0.00161497
*CONN
*I *353:A I *D sky130_fd_sc_hd__buf_2
*I *313:X O *D sky130_fd_sc_hd__a21o_1
*CAP
1 *353:A 0.000743692
2 *313:X 0.000743692
3 *353:A *314:A2 5.65955e-05
4 *353:A *314:B1 7.09928e-05
*RES
1 *313:X *353:A 31.475 
*END

*D_NET *57 0.00139442
*CONN
*I *354:A I *D sky130_fd_sc_hd__buf_2
*I *314:X O *D sky130_fd_sc_hd__a21o_1
*CAP
1 *354:A 0.000697212
2 *314:X 0.000697212
3 *354:A *67:58 0
*RES
1 *314:X *354:A 39.225 
*END

*D_NET *58 0.00134554
*CONN
*I *355:A I *D sky130_fd_sc_hd__buf_2
*I *315:X O *D sky130_fd_sc_hd__a21o_1
*CAP
1 *355:A 0.000672772
2 *315:X 0.000672772
3 *355:A *315:A2 0
*RES
1 *315:X *355:A 38.8143 
*END

*D_NET *59 0.00104136
*CONN
*I *356:A I *D sky130_fd_sc_hd__buf_2
*I *316:X O *D sky130_fd_sc_hd__a21o_1
*CAP
1 *356:A 0.000520681
2 *316:X 0.000520681
*RES
1 *316:X *356:A 27.35 
*END

*D_NET *60 0.00135655
*CONN
*I *357:A I *D sky130_fd_sc_hd__buf_2
*I *318:X O *D sky130_fd_sc_hd__mux2_1
*CAP
1 *357:A 0.000490295
2 *318:X 0.000490295
3 *357:A *318:A1 5.52238e-05
4 *357:A *358:A 0
5 *357:A *66:31 0
6 *40:47 *357:A 0.000320738
*RES
1 *318:X *357:A 37.3679 
*END

*D_NET *61 0.000626697
*CONN
*I *358:A I *D sky130_fd_sc_hd__buf_2
*I *319:X O *D sky130_fd_sc_hd__mux2_1
*CAP
1 *358:A 0.000285737
2 *319:X 0.000285737
3 *358:A *359:A 0
4 *358:A *66:33 5.52238e-05
5 *357:A *358:A 0
*RES
1 *319:X *358:A 32.5107 
*END

*D_NET *62 0.000482259
*CONN
*I *359:A I *D sky130_fd_sc_hd__buf_2
*I *320:X O *D sky130_fd_sc_hd__mux2_1
*CAP
1 *359:A 0.000241129
2 *320:X 0.000241129
3 *358:A *359:A 0
*RES
1 *320:X *359:A 31.975 
*END

*D_NET *63 0.00130793
*CONN
*I *360:A I *D sky130_fd_sc_hd__buf_2
*I *321:X O *D sky130_fd_sc_hd__mux2_1
*CAP
1 *360:A 0.00033564
2 *321:X 0.00033564
3 *360:A *66:8 0
4 ImmExt[9] *360:A 2.27416e-05
5 *309:A2 *360:A 0
6 *345:A *360:A 0.000613905
7 *46:12 *360:A 0
*RES
1 *321:X *360:A 36.2607 
*END

*D_NET *64 0.00250001
*CONN
*I *316:B1 I *D sky130_fd_sc_hd__a21o_1
*I *314:B1 I *D sky130_fd_sc_hd__a21o_1
*I *313:B1 I *D sky130_fd_sc_hd__a21o_1
*I *344:X O *D sky130_fd_sc_hd__buf_1
*CAP
1 *316:B1 0.000179942
2 *314:B1 0.000109323
3 *313:B1 0
4 *344:X 5.34908e-05
5 *64:14 0.000357832
6 *64:8 0.000481942
7 *314:B1 *314:A1 0.000187042
8 *314:B1 *314:A2 9.83388e-05
9 *316:B1 *316:A1 9.77414e-05
10 *316:B1 *67:32 4.08637e-05
11 *316:B1 *67:34 0.000215303
12 *316:B1 *71:16 7.1704e-05
13 *64:8 *67:58 2.24646e-05
14 *64:14 *313:A1 2.14658e-05
15 *64:14 *314:A2 4.13122e-06
16 *64:14 *67:58 0.000368096
17 *312:A *64:8 9.25014e-06
18 *353:A *314:B1 7.09928e-05
19 *54:46 *64:8 0.000100831
20 *54:46 *64:14 9.25014e-06
*RES
1 *344:X *64:8 15.1393 
2 *64:8 *64:14 10.3214 
3 *64:14 *313:B1 9.3 
4 *64:14 *314:B1 12.7464 
5 *64:8 *316:B1 18.4607 
*END

*D_NET *65 0.00276774
*CONN
*I *322:A0 I *D sky130_fd_sc_hd__mux2_1
*I *311:A2 I *D sky130_fd_sc_hd__a21bo_1
*I *337:X O *D sky130_fd_sc_hd__clkbuf_1
*CAP
1 *322:A0 0
2 *311:A2 0.000718958
3 *337:X 0.000355138
4 *65:8 0.0010741
5 *322:S *311:A2 8.16036e-05
6 *328:B1 *311:A2 0.000275499
7 *352:A *311:A2 0.000169054
8 *40:37 *311:A2 9.33907e-05
*RES
1 *337:X *65:8 14.7821 
2 *65:8 *311:A2 30.4071 
3 *65:8 *322:A0 9.3 
*END

*D_NET *66 0.0122459
*CONN
*I *326:A1 I *D sky130_fd_sc_hd__a21o_1
*I *322:A1 I *D sky130_fd_sc_hd__mux2_1
*I *312:C_N I *D sky130_fd_sc_hd__nor3b_1
*I *328:A1 I *D sky130_fd_sc_hd__a21o_1
*I *318:A1 I *D sky130_fd_sc_hd__mux2_1
*I *319:A1 I *D sky130_fd_sc_hd__mux2_1
*I *320:A1 I *D sky130_fd_sc_hd__mux2_1
*I *324:A1 I *D sky130_fd_sc_hd__mux2_1
*I *323:A1 I *D sky130_fd_sc_hd__mux2_1
*I *321:A1 I *D sky130_fd_sc_hd__mux2_1
*I *330:X O *D sky130_fd_sc_hd__buf_2
*CAP
1 *326:A1 0.000521392
2 *322:A1 0.000286084
3 *312:C_N 0.00101285
4 *328:A1 0
5 *318:A1 0.000250215
6 *319:A1 0.000112508
7 *320:A1 0
8 *324:A1 0.0001492
9 *323:A1 4.31673e-05
10 *321:A1 3.86833e-05
11 *330:X 8.51777e-05
12 *66:35 0.000557297
13 *66:33 0.000458679
14 *66:31 0.000503161
15 *66:27 0.000999459
16 *66:25 0.000535086
17 *66:23 0.00124658
18 *66:21 0.000812322
19 *66:19 0.00103143
20 *66:8 0.000258642
21 *312:C_N *310:C_N 0
22 *312:C_N *311:A1 8.07313e-05
23 *312:C_N *67:16 2.07491e-05
24 *312:C_N *67:22 6.70645e-05
25 *312:C_N *67:32 9.90431e-05
26 *323:A1 *323:A0 0.000140815
27 *324:A1 *314:A2 0
28 *324:A1 *69:12 1.89507e-06
29 *326:A1 *308:C_N 0.000144773
30 *326:A1 *309:A1 5.33433e-05
31 *326:A1 *70:27 1.64616e-05
32 *66:27 *318:A0 0
33 *66:35 *323:A0 8.17274e-05
34 *309:A2 *326:A1 0.000151071
35 *309:A2 *66:8 2.58997e-05
36 *309:A2 *66:19 9.24491e-05
37 *309:B1_N *326:A1 5.71472e-05
38 *310:A *312:C_N 0.000170964
39 *311:B1_N *312:C_N 0.000131659
40 *312:A *312:C_N 0.000176745
41 *319:A0 *319:A1 5.71472e-05
42 *320:A0 *319:A1 4.14279e-05
43 *320:A0 *66:33 0.000274288
44 *320:A0 *66:35 5.71472e-05
45 *322:S *66:23 0
46 *323:S *323:A1 2.84026e-05
47 *323:S *66:35 2.59355e-05
48 *324:S *324:A1 0.000102463
49 *326:A2 *326:A1 0.00017918
50 *328:A2 *66:23 9.71532e-05
51 *328:A2 *66:25 0.000113038
52 *328:A2 *66:27 1.02504e-05
53 *344:A *312:C_N 5.99152e-05
54 *357:A *318:A1 5.52238e-05
55 *357:A *66:31 0
56 *358:A *66:33 5.52238e-05
57 *360:A *66:8 0
58 *40:10 *312:C_N 4.69963e-05
59 *40:18 *66:23 0.000101545
60 *40:33 *312:C_N 1.07719e-05
61 *40:37 *66:23 0
62 *40:37 *66:25 0
63 *40:37 *66:27 0
64 *40:47 *318:A1 7.77751e-05
65 *40:47 *66:27 0
66 *40:47 *66:31 0
67 *40:51 *66:35 0.000401786
68 *40:99 *66:19 0
69 *40:99 *66:21 0
70 *40:99 *66:23 0
71 *46:12 *66:8 3.57163e-05
*RES
1 *330:X *66:8 15.7464 
2 *66:8 *321:A1 14.3357 
3 *66:8 *66:19 2.85714 
4 *66:19 *66:21 6.80357 
5 *66:21 *66:23 3.46429 
6 *66:23 *66:25 1.64286 
7 *66:25 *66:27 8.01786 
8 *66:27 *66:31 9.48214 
9 *66:31 *66:33 2.58929 
10 *66:33 *66:35 7.92857 
11 *66:35 *323:A1 10.6571 
12 *66:35 *324:A1 20.5857 
13 *66:33 *320:A1 9.3 
14 *66:31 *319:A1 11.0857 
15 *66:27 *318:A1 18.0321 
16 *66:25 *328:A1 13.8 
17 *66:23 *312:C_N 49.3536 
18 *66:21 *322:A1 18.4429 
19 *66:19 *326:A1 24.1929 
*END

*D_NET *67 0.00822605
*CONN
*I *308:B I *D sky130_fd_sc_hd__or3b_1
*I *309:A1 I *D sky130_fd_sc_hd__a21bo_1
*I *310:B I *D sky130_fd_sc_hd__or3b_1
*I *311:A1 I *D sky130_fd_sc_hd__a21bo_1
*I *327:A_N I *D sky130_fd_sc_hd__and3b_1
*I *317:A_N I *D sky130_fd_sc_hd__nand2b_4
*I *313:A1 I *D sky130_fd_sc_hd__a21o_1
*I *314:A1 I *D sky130_fd_sc_hd__a21o_1
*I *312:B I *D sky130_fd_sc_hd__nor3b_1
*I *316:A1 I *D sky130_fd_sc_hd__a21o_1
*I *331:X O *D sky130_fd_sc_hd__buf_2
*CAP
1 *308:B 0.000146166
2 *309:A1 1.99167e-05
3 *310:B 0
4 *311:A1 0.000190554
5 *327:A_N 1.1326e-05
6 *317:A_N 0
7 *313:A1 7.83741e-05
8 *314:A1 0.000119122
9 *312:B 9.97427e-05
10 *316:A1 7.02708e-05
11 *331:X 5.64349e-05
12 *67:83 0.000393038
13 *67:58 0.000397858
14 *67:34 0.000319868
15 *67:32 0.000692615
16 *67:22 0.000483682
17 *67:16 0.000590391
18 *67:14 0.00065542
19 *67:10 0.000461147
20 *67:8 0.00024636
21 *311:A1 *310:C_N 3.48705e-05
22 *311:A1 *71:16 5.23057e-05
23 *312:B *71:10 0.000125736
24 *327:A_N *71:16 2.27416e-05
25 *67:32 *71:16 2.54558e-06
26 *308:A *67:14 0
27 *310:A *67:22 0
28 *312:C_N *311:A1 8.07313e-05
29 *312:C_N *67:16 2.07491e-05
30 *312:C_N *67:22 6.70645e-05
31 *312:C_N *67:32 9.90431e-05
32 *314:B1 *314:A1 0.000187042
33 *316:B1 *316:A1 9.77414e-05
34 *316:B1 *67:32 4.08637e-05
35 *316:B1 *67:34 0.000215303
36 *321:S *67:8 2.28428e-05
37 *326:A1 *309:A1 5.33433e-05