*SPEF "ieee 1481-1999"
*DESIGN "Control_unit"
*DATE "16:54:24 Sunday November 16, 2025"
*VENDOR "The OpenROAD Project"
*PROGRAM "OpenROAD"
*VERSION "edf00dff99f6c40d67a30c0e22a8191c5d2ed9d6"
*DESIGN_FLOW "NAME_SCOPE LOCAL" "PIN_CAP NONE"
*DIVIDER /
*DELIMITER :
*BUS_DELIMITER []
*T_UNIT 1 NS
*C_UNIT 1 PF
*R_UNIT 1 OHM
*L_UNIT 1 HENRY

*NAME_MAP
*1 ALUControl[0]
*2 ALUControl[1]
*3 ALUControl[2]
*4 ALUControl[3]
*5 ALUSrc
*6 ImmSrc[0]
*7 ImmSrc[1]
*8 MemWrite
*9 PCSrc
*10 RegWrite
*11 ResultSrc
*14 func[0]
*15 func[1]
*16 func[2]
*17 func[3]
*18 opcode[0]
*19 opcode[1]
*20 opcode[2]
*21 zero
*22 _00_
*23 _01_
*24 _02_
*25 _03_
*26 _04_
*27 _05_
*28 _06_
*29 _07_
*30 _08_
*31 _09_
*32 _10_
*33 net1
*34 net10
*35 net11
*36 net12
*37 net13
*38 net14
*39 net15
*40 net16
*41 net17
*42 net18
*43 net19
*44 net2
*45 net20
*46 net21
*47 net22
*48 net23
*49 net3
*50 net4
*51 net5
*52 net6
*53 net7
*54 net8
*55 net9
*56 FILLER_0_13
*57 FILLER_0_27
*58 FILLER_0_35
*59 FILLER_0_9
*60 FILLER_1_10
*61 FILLER_1_18
*62 FILLER_1_44
*63 FILLER_2_19
*64 FILLER_2_27
*65 FILLER_2_29
*66 FILLER_2_38
*67 FILLER_2_7
*68 FILLER_3_21
*69 FILLER_3_3
*70 FILLER_3_33
*71 FILLER_3_42
*72 FILLER_3_7
*73 FILLER_4_16
*74 FILLER_4_20
*75 FILLER_4_34
*76 FILLER_4_7
*77 FILLER_5_15
*78 FILLER_5_23
*79 FILLER_5_28
*80 FILLER_5_40
*81 FILLER_5_7
*82 FILLER_6_18
*83 FILLER_6_26
*84 FILLER_6_43
*85 FILLER_6_6
*86 FILLER_7_12
*87 FILLER_7_16
*88 FILLER_7_21
*89 FILLER_7_27
*90 FILLER_7_29
*91 FILLER_7_6
*92 PHY_EDGE_ROW_0_Left_8
*93 PHY_EDGE_ROW_0_Right_0
*94 PHY_EDGE_ROW_1_Left_9
*95 PHY_EDGE_ROW_1_Right_1
*96 PHY_EDGE_ROW_2_Left_10
*97 PHY_EDGE_ROW_2_Right_2
*98 PHY_EDGE_ROW_3_Left_11
*99 PHY_EDGE_ROW_3_Right_3
*100 PHY_EDGE_ROW_4_Left_12
*101 PHY_EDGE_ROW_4_Right_4
*102 PHY_EDGE_ROW_5_Left_13
*103 PHY_EDGE_ROW_5_Right_5
*104 PHY_EDGE_ROW_6_Left_14
*105 PHY_EDGE_ROW_6_Right_6
*106 PHY_EDGE_ROW_7_Left_15
*107 PHY_EDGE_ROW_7_Right_7
*108 TAP_TAPCELL_ROW_0_16
*109 TAP_TAPCELL_ROW_2_17
*110 TAP_TAPCELL_ROW_4_18
*111 TAP_TAPCELL_ROW_6_19
*112 TAP_TAPCELL_ROW_7_20
*113 _11_
*114 _12_
*115 _13_
*116 _14_
*117 _15_
*118 _16_
*119 _17_
*120 _18_
*121 _19_
*122 _20_
*123 _21_
*124 _22_
*125 _23_
*126 _24_
*127 _25_
*128 _26_
*129 _27_
*130 _28_
*131 _29_
*132 _30_
*133 _31_
*134 _32_
*135 fanout22
*136 fanout23
*137 input1
*138 input2
*139 input3
*140 input4
*141 input5
*142 input6
*143 input7
*144 input8
*145 max_cap20
*146 output10
*147 output11
*148 output12
*149 output13
*150 output14
*151 output15
*152 output16
*153 output17
*154 output18
*155 output19
*156 output9
*157 wire21

*PORTS
ALUControl[0] O
ALUControl[1] O
ALUControl[2] O
ALUControl[3] O
ALUSrc O
ImmSrc[0] O
ImmSrc[1] O
MemWrite O
PCSrc O
RegWrite O
ResultSrc O
func[0] I
func[1] I
func[2] I
func[3] I
opcode[0] I
opcode[1] I
opcode[2] I
zero I

*D_NET *1 0.00105746
*CONN
*P ALUControl[0] O
*I *156:X O *D sky130_fd_sc_hd__buf_2
*CAP
1 ALUControl[0] 0.000154284
2 *156:X 0.000339892
3 *1:10 0.000494176
4 ALUControl[0] ALUControl[1] 6.91091e-05
*RES
1 *156:X *1:10 42.0289 
2 *1:10 ALUControl[0] 8.672 
*END

*D_NET *2 0.000748892
*CONN
*P ALUControl[1] O
*I *146:X O *D sky130_fd_sc_hd__buf_2
*CAP
1 ALUControl[1] 0.00029084
2 *146:X 0.00029084
3 ALUControl[1] *139:A 6.56242e-05
4 ALUControl[1] *34:10 3.24775e-05
5 ALUControl[0] ALUControl[1] 6.91091e-05
*RES
1 *146:X ALUControl[1] 47.8691 
*END

*D_NET *3 0.00119465
*CONN
*P ALUControl[2] O
*I *147:X O *D sky130_fd_sc_hd__buf_2
*CAP
1 ALUControl[2] 0.000530812
2 *147:X 0.000530812
3 ALUControl[2] *125:A_N 4.6318e-06
4 ALUControl[2] *15:11 0.000128391
*RES
1 *147:X ALUControl[2] 49.3721 
*END

*D_NET *4 0.000806654
*CONN
*P ALUControl[3] O
*I *148:X O *D sky130_fd_sc_hd__buf_2
*CAP
1 ALUControl[3] 0.000342166
2 *148:X 0.000342166
3 ALUControl[3] *139:A 6.23473e-05
4 ALUControl[3] *17:15 5.99754e-05
5 ALUControl[3] *46:10 0
*RES
1 *148:X ALUControl[3] 49.8901 
*END

*D_NET *5 0.000874722
*CONN
*P ALUSrc O
*I *149:X O *D sky130_fd_sc_hd__buf_2
*CAP
1 ALUSrc 0.000111135
2 *149:X 0.00029962
3 *5:10 0.000410754
4 ALUSrc RegWrite 5.32136e-05
*RES
1 *149:X *5:10 42.4846 
2 *5:10 ALUSrc 8.50027 
*END

*D_NET *6 0.000677131
*CONN
*P ImmSrc[0] O
*I *150:X O *D sky130_fd_sc_hd__buf_2
*CAP
1 ImmSrc[0] 7.67726e-05
2 *150:X 0.000236726
3 *6:14 0.000313498
4 ImmSrc[0] PCSrc 1.5289e-05
5 ImmSrc[0] *144:A 2.12457e-05
6 *6:14 PCSrc 1.35999e-05
7 *6:14 *144:A 0
*RES
1 *150:X *6:14 49.9 
2 *6:14 ImmSrc[0] 0.382667 
*END

*D_NET *7 0.000763907
*CONN
*P ImmSrc[1] O
*I *151:X O *D sky130_fd_sc_hd__buf_2
*CAP
1 ImmSrc[1] 7.58295e-05
2 *151:X 0.000277724
3 *7:14 0.000353553
4 ImmSrc[1] PCSrc 2.43221e-05
5 ImmSrc[1] *143:A 1.5289e-05
6 *7:14 PCSrc 4.56684e-06
7 *7:14 *143:A 1.26232e-05
8 *7:14 *9:10 0
*RES
1 *151:X *7:14 49.9 
2 *7:14 ImmSrc[1] 0.382667 
*END

*D_NET *8 0.00114487
*CONN
*P MemWrite O
*I *152:X O *D sky130_fd_sc_hd__buf_2
*CAP
1 MemWrite 0.000500606
2 *152:X 0.000500606
3 MemWrite *142:A 0
4 MemWrite *51:21 0.000143655
*RES
1 *152:X MemWrite 48.2743 
*END

*D_NET *9 0.00081785
*CONN
*P PCSrc O
*I *153:X O *D sky130_fd_sc_hd__buf_2
*CAP
1 PCSrc 8.62259e-05
2 *153:X 0.00029381
3 *9:10 0.000380036
4 *9:10 *41:10 0
5 ImmSrc[0] PCSrc 1.5289e-05
6 ImmSrc[1] PCSrc 2.43221e-05
7 *6:14 PCSrc 1.35999e-05
8 *7:14 PCSrc 4.56684e-06
9 *7:14 *9:10 0
*RES
1 *153:X *9:10 42.5054 
2 *9:10 PCSrc 8.4816 
*END

*D_NET *10 0.00112827
*CONN
*P RegWrite O
*I *154:X O *D sky130_fd_sc_hd__buf_2
*CAP
1 RegWrite 0.000500707
2 *154:X 0.000500707
3 RegWrite ResultSrc 5.02946e-05
4 RegWrite *17:15 0
5 RegWrite *37:10 2.33476e-05
6 ALUSrc RegWrite 5.32136e-05
*RES
1 *154:X RegWrite 47.5941 
*END

*D_NET *11 0.000741268
*CONN
*P ResultSrc O
*I *155:X O *D sky130_fd_sc_hd__buf_2
*CAP
1 ResultSrc 0.00031888
2 *155:X 0.00031888
3 ResultSrc *17:15 5.32136e-05
4 RegWrite ResultSrc 5.02946e-05
*RES
1 *155:X ResultSrc 49.5763 
*END

*D_NET *14 0.000889602
*CONN
*P func[0] I
*I *137:A I *D sky130_fd_sc_hd__buf_1
*CAP
1 func[0] 0.000422175
2 *137:A 0
3 *14:19 0.000422175
4 *14:19 *144:A 2.79122e-05
5 *14:19 *54:10 1.73399e-05
*RES
1 func[0] *14:19 29.0848 
2 *14:19 *137:A 23 
*END

*D_NET *15 0.00222885
*CONN
*P func[1] I
*I *138:A I *D sky130_fd_sc_hd__buf_1
*CAP
1 func[1] 0.000715241
2 *138:A 0
3 *15:11 0.000715241
4 *15:11 *121:A_N 0.0002263
5 *15:11 *33:8 0.000358425
6 *15:11 *33:17 8.52481e-05
7 *15:11 *55:10 0
8 ALUControl[2] *15:11 0.000128391
*RES
1 func[1] *15:11 32.3171 
2 *15:11 *138:A 23 
*END

*D_NET *16 0.000522341
*CONN
*P func[2] I
*I *139:A I *D sky130_fd_sc_hd__buf_1
*CAP
1 func[2] 0.000197185
2 *139:A 0.000197185
3 *139:A *17:15 0
4 *139:A *46:14 0
5 ALUControl[1] *139:A 6.56242e-05
6 ALUControl[3] *139:A 6.23473e-05
*RES
1 func[2] *139:A 47.0789 
*END

*D_NET *17 0.00183397
*CONN
*P func[3] I
*I *140:A I *D sky130_fd_sc_hd__clkbuf_1
*CAP
1 func[3] 0.000756746
2 *140:A 0
3 *17:15 0.000756746
4 *17:15 *115:A 4.344e-05
5 *17:15 *115:B 5.79559e-05
6 *17:15 *120:D 5.93881e-05
7 *17:15 *155:A 4.65096e-05
8 *17:15 *53:42 0
9 ALUControl[3] *17:15 5.99754e-05
10 RegWrite *17:15 0
11 ResultSrc *17:15 5.32136e-05
12 *139:A *17:15 0
*RES
1 func[3] *17:15 29.027 
2 *17:15 *140:A 23 
*END

*D_NET *18 0.000616196
*CONN
*P opcode[0] I
*I *141:A I *D sky130_fd_sc_hd__buf_1
*CAP
1 opcode[0] 0.000297475
2 *141:A 0.000297475
3 *141:A *143:A 2.12457e-05
*RES
1 opcode[0] *141:A 49.8062 
*END

*D_NET *19 0.00100773
*CONN
*P opcode[1] I
*I *142:A I *D sky130_fd_sc_hd__buf_1
*CAP
1 opcode[1] 0.000468421
2 *142:A 0.000468421
3 *142:A *40:10 0
4 *142:A *51:21 7.08911e-05
5 MemWrite *142:A 0
*RES
1 opcode[1] *142:A 48.0257 
*END

*D_NET *20 0.000553828
*CONN
*P opcode[2] I
*I *143:A I *D sky130_fd_sc_hd__buf_1
*CAP
1 opcode[2] 0.000252335
2 *143:A 0.000252335
3 *143:A *47:12 0
4 ImmSrc[1] *143:A 1.5289e-05
5 *141:A *143:A 2.12457e-05
6 *7:14 *143:A 1.26232e-05
*RES
1 opcode[2] *143:A 47.7832 
*END

*D_NET *21 0.000704188
*CONN
*P zero I
*I *144:A I *D sky130_fd_sc_hd__clkbuf_1
*CAP
1 zero 0.000317731
2 *144:A 0.000317731
3 *144:A *54:10 1.95685e-05
4 ImmSrc[0] *144:A 2.12457e-05
5 *6:14 *144:A 0
6 *14:19 *144:A 2.79122e-05
*RES
1 zero *144:A 48.8397 
*END

*D_NET *22 0.00442321
*CONN
*I *114:B I *D sky130_fd_sc_hd__or2_1
*I *131:B I *D sky130_fd_sc_hd__and4_1
*I *133:A2 I *D sky130_fd_sc_hd__a31o_1
*I *122:B I *D sky130_fd_sc_hd__and3b_1
*I *113:Y O *D sky130_fd_sc_hd__inv_2
*CAP
1 *114:B 0.00057219
2 *131:B 0.000217143
3 *133:A2 2.34823e-05
4 *122:B 0
5 *113:Y 0
6 *22:20 0.0002216
7 *22:12 0.00035748
8 *22:10 0.00059606
9 *22:4 0.000838708
10 *114:B *116:C 5.50106e-05
11 *114:B *47:70 0.000692437
12 *114:B *52:30 1.72202e-05
13 *131:B *131:A 0.000165437
14 *131:B *131:D 0.00010018
15 *131:B *30:10 5.50106e-05
16 *131:B *32:10 4.17736e-05
17 *22:10 *122:A_N 3.0647e-05
18 *22:10 *123:B 0
19 *22:10 *48:10 3.5664e-05
20 *22:10 *48:12 4.02103e-05
21 *22:10 *48:18 6.63676e-05
22 *22:10 *53:29 0
23 *22:12 *131:A 5.12254e-05
24 *22:12 *32:10 5.67058e-05
25 *22:20 *122:C 0.000136486
26 *22:20 *31:10 3.99192e-05
27 *22:20 *38:8 6.07611e-06
28 *22:20 *39:12 6.17437e-06
29 *22:20 *41:10 0
*RES
1 *113:Y *22:4 23 
2 *22:4 *22:10 35.4271 
3 *22:10 *22:12 2.05071 
4 *22:12 *22:20 34.4121 
5 *22:20 *122:B 23 
6 *22:12 *133:A2 23.4971 
7 *22:10 *131:B 28.075 
8 *22:4 *114:B 32.2179 
*END

*D_NET *23 0.000530147
*CONN
*I *118:A I *D sky130_fd_sc_hd__nand2_1
*I *115:B I *D sky130_fd_sc_hd__nor2_1
*I *114:X O *D sky130_fd_sc_hd__or2_1
*CAP
1 *118:A 0
2 *115:B 1.17716e-05
3 *114:X 0.000157139
4 *23:12 1.17716e-05
5 *23:10 0.000157139
6 *115:B *155:A 5.56279e-05
7 *23:10 *119:A1 2.93845e-05
8 *23:10 *120:D 2.24366e-06
9 *23:10 *24:17 9.43771e-06
10 *23:10 *37:10 3.76761e-05
11 *23:10 *48:57 0
12 *17:15 *115:B 5.79559e-05
*RES
1 *114:X *23:10 40.5271 
2 *23:10 *23:12 15 
3 *23:12 *115:B 23.6214 
4 *23:12 *118:A 23 
*END

*D_NET *24 0.00250287
*CONN
*I *118:B I *D sky130_fd_sc_hd__nand2_1
*I *120:D I *D sky130_fd_sc_hd__nor4_1
*I *119:B1 I *D sky130_fd_sc_hd__o21ai_1
*I *117:Y O *D sky130_fd_sc_hd__nand2b_1
*CAP
1 *118:B 2.79296e-05
2 *120:D 0.000377207
3 *119:B1 0
4 *117:Y 4.60507e-05
5 *24:17 0.000573822
6 *24:6 0.000214736
7 *118:B *155:A 5.50049e-05
8 *120:D *120:C 0
9 *120:D *157:A 1.5769e-05
10 *120:D *36:10 3.70187e-05
11 *120:D *46:10 5.50106e-05
12 *120:D *50:20 1.3523e-05
13 *120:D *50:40 0.000190082
14 *24:6 *119:A1 0.000143535
15 *24:6 *119:A2 0.000276834
16 *24:6 *47:70 0.000146822
17 *24:17 *119:A1 4.08664e-05
18 *24:17 *119:A2 5.3304e-05
19 *24:17 *37:10 0.000164282
20 *17:15 *120:D 5.93881e-05
21 *23:10 *120:D 2.24366e-06
22 *23:10 *24:17 9.43771e-06
*RES
1 *117:Y *24:6 26.0036 
2 *24:6 *119:B1 23 
3 *24:6 *24:17 18.5836 
4 *24:17 *120:D 45.4364 
5 *24:17 *118:B 38.6214 
*END

*D_NET *25 0.00242504
*CONN
*I *145:A I *D sky130_fd_sc_hd__clkbuf_1
*I *128:A3 I *D sky130_fd_sc_hd__a32o_1
*I *120:Y O *D sky130_fd_sc_hd__nor4_1
*CAP
1 *145:A 9.08055e-05
2 *128:A3 0.000484696
3 *120:Y 0.000188576
4 *25:8 0.000764077
5 *128:A3 *124:B2 2.46121e-05
6 *128:A3 *126:A 0.000110184
7 *128:A3 *128:B1 0.000247756
8 *128:A3 *38:25 3.98859e-05
9 *128:A3 *44:18 4.37586e-06
10 *128:A3 *49:14 0
11 *145:A *126:A 5.3304e-05
12 *145:A *49:6 7.87243e-05
13 *25:8 *120:C 1.01436e-05
14 *25:8 *49:14 0
15 *25:8 *49:23 0.000327903
*RES
1 *120:Y *25:8 42.7229 
2 *25:8 *128:A3 45.54 
3 *25:8 *145:A 40.0714 
*END

*D_NET *26 0.00134177
*CONN
*I *124:A2 I *D sky130_fd_sc_hd__a221o_1
*I *126:A I *D sky130_fd_sc_hd__or2_1
*I *121:X O *D sky130_fd_sc_hd__and2b_1
*CAP
1 *124:A2 6.16915e-05
2 *126:A 0.000130657
3 *121:X 0.000267187
4 *26:18 0.000459535
5 *124:A2 *124:A1 1.46586e-05
6 *124:A2 *45:8 4.96811e-06
7 *124:A2 *46:18 1.59379e-05
8 *126:A *29:8 8.71559e-05
9 *26:18 *125:A_N 0
10 *26:18 *128:A1 0
11 *26:18 *38:25 0
12 *26:18 *44:52 0.000136486
13 *128:A3 *126:A 0.000110184
14 *145:A *126:A 5.3304e-05
*RES
1 *121:X *26:18 43.2925 
2 *26:18 *126:A 40.7032 
3 *26:18 *124:A2 39.1134 
*END

*D_NET *27 0.00127715
*CONN
*I *157:A I *D sky130_fd_sc_hd__buf_1
*I *123:Y O *D sky130_fd_sc_hd__nor3_1
*CAP
1 *157:A 0.000249731
2 *123:Y 0.000172165
3 *27:10 0.000421897
4 *157:A *131:C 7.53384e-06
5 *157:A *50:20 7.72341e-05
6 *157:A *50:40 0.000103405
7 *27:10 *48:49 8.06804e-06
8 *27:10 *50:14 5.31444e-05
9 *27:10 *53:42 0.000168203
10 *120:D *157:A 1.5769e-05
*RES
1 *123:Y *27:10 41.1279 
2 *27:10 *157:A 42.8057 
*END

*D_NET *28 0.00221443
*CONN
*I *134:A1 I *D sky130_fd_sc_hd__a21o_1
*I *126:B I *D sky130_fd_sc_hd__or2_1
*I *125:X O *D sky130_fd_sc_hd__and2b_1
*CAP
1 *134:A1 0.00018681
2 *126:B 0.000249082
3 *125:X 0.000285836
4 *28:10 0.000721728
5 *126:B *38:25 0.000441972
6 *126:B *49:14 1.5769e-05
7 *134:A1 *30:10 1.14452e-05
8 *134:A1 *31:10 0
9 *134:A1 *32:10 6.07611e-06
10 *134:A1 *49:14 0
11 *28:10 *128:A2 0
12 *28:10 *31:10 0
13 *28:10 *33:8 9.75779e-05
14 *28:10 *33:30 0
15 *28:10 *35:10 8.62876e-05
16 *28:10 *44:10 0.000111852
17 *28:10 *49:14 0
*RES
1 *125:X *28:10 43.4686 
2 *28:10 *126:B 43.3857 
3 *28:10 *134:A1 41.6664 
*END

*D_NET *29 0.000796459
*CONN
*I *127:B1 I *D sky130_fd_sc_hd__a22o_1
*I *126:X O *D sky130_fd_sc_hd__or2_1
*CAP
1 *127:B1 0.000201456
2 *126:X 4.94741e-05
3 *29:8 0.000250931
4 *127:B1 *124:A1 0.000149973
5 *127:B1 *127:A1 4.00259e-06
6 *127:B1 *127:A2 1.94812e-05
7 *127:B1 *46:18 1.34914e-05
8 *29:8 *45:8 2.04934e-05
9 *126:A *29:8 8.71559e-05
*RES
1 *126:X *29:8 39.2014 
2 *29:8 *127:B1 41.0243 
*END

*D_NET *30 0.000378736
*CONN
*I *134:A2 I *D sky130_fd_sc_hd__a21o_1
*I *131:X O *D sky130_fd_sc_hd__and4_1
*CAP
1 *134:A2 0
2 *131:X 0.000135307
3 *30:10 0.000135307
4 *30:10 *32:10 4.16661e-05
5 *131:B *30:10 5.50106e-05
6 *134:A1 *30:10 1.14452e-05
*RES
1 *131:X *30:10 40.5271 
2 *30:10 *134:A2 38 
*END

*D_NET *31 0.00135891
*CONN
*I *133:A3 I *D sky130_fd_sc_hd__a31o_1
*I *132:X O *D sky130_fd_sc_hd__xor2_1
*CAP
1 *133:A3 0
2 *132:X 0.000523736
3 *31:10 0.000523736
4 *31:10 *122:A_N 0.000193388
5 *31:10 *122:C 7.8128e-05
6 *31:10 *33:60 0
7 *31:10 *38:8 0
8 *134:A1 *31:10 0
9 *22:20 *31:10 3.99192e-05
10 *28:10 *31:10 0
*RES
1 *132:X *31:10 48.6471 
2 *31:10 *133:A3 38 
*END

*D_NET *32 0.000474746
*CONN
*I *134:B1 I *D sky130_fd_sc_hd__a21o_1
*I *133:X O *D sky130_fd_sc_hd__a31o_1
*CAP
1 *134:B1 0
2 *133:X 0.000141834
3 *32:10 0.000141834
4 *32:10 *122:A_N 4.48568e-05
5 *131:B *32:10 4.17736e-05
6 *134:A1 *32:10 6.07611e-06
7 *22:12 *32:10 5.67058e-05
8 *30:10 *32:10 4.16661e-05
*RES
1 *133:X *32:10 41.0036 
2 *32:10 *134:B1 38 
*END

*D_NET *33 0.00353172
*CONN
*I *132:A I *D sky130_fd_sc_hd__xor2_1
*I *128:A2 I *D sky130_fd_sc_hd__a32o_1
*I *124:B2 I *D sky130_fd_sc_hd__a221o_1
*I *121:A_N I *D sky130_fd_sc_hd__and2b_1
*I *125:B I *D sky130_fd_sc_hd__and2b_1
*I *137:X O *D sky130_fd_sc_hd__buf_1
*CAP
1 *132:A 0
2 *128:A2 3.0112e-05
3 *124:B2 0.00010828
4 *121:A_N 0.000129263
5 *125:B 0
6 *137:X 0
7 *33:60 0.000215154
8 *33:30 0.000241117
9 *33:17 0.000282741
10 *33:8 0.00034632
11 *33:4 0.000510722
12 *121:A_N *125:A_N 0.000114423
13 *121:A_N *35:10 0
14 *124:B2 *128:B1 7.5499e-05
15 *124:B2 *44:18 5.3304e-05
16 *124:B2 *44:44 0.000240516
17 *124:B2 *46:18 2.02517e-05
18 *128:A2 *128:A1 6.48142e-05
19 *33:8 *44:10 0.00010018
20 *33:30 *125:A_N 0.000111852
21 *33:30 *128:A1 2.46345e-05
22 *33:60 *44:10 0
23 *33:60 *54:10 7.03766e-05
24 *128:A3 *124:B2 2.46121e-05
25 *15:11 *121:A_N 0.0002263
26 *15:11 *33:8 0.000358425
27 *15:11 *33:17 8.52481e-05
28 *28:10 *128:A2 0
29 *28:10 *33:8 9.75779e-05
30 *28:10 *33:30 0
31 *31:10 *33:60 0
*RES
1 *137:X *33:4 23 
2 *33:4 *33:8 7.31214 
3 *33:8 *125:B 23 
4 *33:8 *33:17 16.0979 
5 *33:17 *121:A_N 41.3764 
6 *33:17 *33:30 1.90571 
7 *33:30 *124:B2 42.003 
8 *33:30 *128:A2 38.8493 
9 *33:4 *33:60 33.8321 
10 *33:60 *132:A 23 
*END

*D_NET *34 0.000509396
*CONN
*I *146:A I *D sky130_fd_sc_hd__buf_2
*I *127:X O *D sky130_fd_sc_hd__a22o_1
*CAP
1 *146:A 0
2 *127:X 0.000183819
3 *34:10 0.000183819
4 *34:10 *127:A1 5.56356e-05
5 *34:10 *55:10 5.36457e-05
6 ALUControl[1] *34:10 3.24775e-05
*RES
1 *127:X *34:10 41.3557 
2 *34:10 *146:A 38 
*END

*D_NET *35 0.0004913
*CONN
*I *147:A I *D sky130_fd_sc_hd__buf_2
*I *128:X O *D sky130_fd_sc_hd__a32o_1
*CAP
1 *147:A 0
2 *128:X 0.000175001
3 *35:10 0.000175001
4 *35:10 *44:18 5.50106e-05
5 *121:A_N *35:10 0
6 *28:10 *35:10 8.62876e-05
*RES
1 *128:X *35:10 40.8793 
2 *35:10 *147:A 38 
*END

*D_NET *36 0.000471119
*CONN
*I *148:A I *D sky130_fd_sc_hd__buf_2
*I *129:X O *D sky130_fd_sc_hd__and2_1
*CAP
1 *148:A 4.03767e-05
2 *129:X 0.000151169
3 *36:10 0.000191546
4 *148:A *46:10 6.17437e-06
5 *36:10 *46:10 4.08537e-05
6 *36:10 *50:40 3.98082e-06
7 *120:D *36:10 3.70187e-05
*RES
1 *129:X *36:10 40.5271 
2 *36:10 *148:A 38.6214 
*END

*D_NET *37 0.00114658
*CONN
*I *149:A I *D sky130_fd_sc_hd__buf_2
*I *118:Y O *D sky130_fd_sc_hd__nand2_1
*CAP
1 *149:A 0.000105946
2 *118:Y 0.00025727
3 *37:10 0.000363216
4 *37:10 *155:A 5.67058e-05
5 *37:10 *42:8 0.000138136
6 RegWrite *37:10 2.33476e-05
7 *23:10 *37:10 3.76761e-05
8 *24:17 *37:10 0.000164282
*RES
1 *118:Y *37:10 43.3443 
2 *37:10 *149:A 39.595 
*END

*D_NET *38 0.00225226
*CONN
*I *124:C1 I *D sky130_fd_sc_hd__a221o_1
*I *150:A I *D sky130_fd_sc_hd__buf_2
*I *122:X O *D sky130_fd_sc_hd__and3b_1
*CAP
1 *124:C1 0
2 *150:A 6.37462e-05
3 *122:X 0.000124134
4 *38:25 0.00058706
5 *38:10 0.000650806
6 *38:8 0.000124134
7 *38:25 *49:14 0.000214448
8 *126:B *38:25 0.000441972
9 *128:A3 *38:25 3.98859e-05
10 *22:20 *38:8 6.07611e-06
11 *26:18 *38:25 0
12 *31:10 *38:8 0
*RES
1 *122:X *38:8 40.2579 
2 *38:8 *38:10 15 
3 *38:10 *150:A 24.0979 
4 *38:10 *38:25 42.76 
5 *38:25 *124:C1 23 
*END

*D_NET *39 0.000624446
*CONN
*I *151:A I *D sky130_fd_sc_hd__buf_2
*I *133:B1 I *D sky130_fd_sc_hd__a31o_1
*I *130:X O *D sky130_fd_sc_hd__and3b_1
*CAP
1 *151:A 0.000120495
2 *133:B1 0
3 *130:X 0
4 *39:12 0.000165689
5 *39:4 0.000286184
6 *39:12 *122:C 2.76611e-06
7 *39:12 *47:18 4.31366e-05
8 *22:20 *39:12 6.17437e-06
*RES
1 *130:X *39:4 23 
2 *39:4 *39:12 33.0036 
3 *39:12 *133:B1 23 
4 *39:4 *151:A 25.2993 
*END

*D_NET *40 0.000686271
*CONN
*I *152:A I *D sky130_fd_sc_hd__buf_2
*I *116:X O *D sky130_fd_sc_hd__and3b_1
*CAP
1 *152:A 0
2 *116:X 0.000201485
3 *40:10 0.000201485
4 *40:10 *48:8 0
5 *40:10 *51:21 0
6 *40:10 *53:6 0.000143655
7 *40:10 *53:16 0.000139647
8 *142:A *40:10 0
*RES
1 *116:X *40:10 41.8321 
2 *40:10 *152:A 38 
*END

*D_NET *41 0.000999178
*CONN
*I *153:A I *D sky130_fd_sc_hd__buf_2
*I *134:X O *D sky130_fd_sc_hd__a21o_1
*CAP
1 *153:A 0
2 *134:X 0.000472937
3 *41:10 0.000472937
4 *41:10 *122:C 5.3304e-05
5 *9:10 *41:10 0
6 *22:20 *41:10 0
*RES
1 *134:X *41:10 44.3386 
2 *41:10 *153:A 38 
*END

*D_NET *42 0.000390783
*CONN
*I *154:A I *D sky130_fd_sc_hd__buf_2
*I *119:Y O *D sky130_fd_sc_hd__o21ai_1
*CAP
1 *154:A 0
2 *119:Y 0.000126324
3 *42:8 0.000126324
4 *37:10 *42:8 0.000138136
*RES
1 *119:Y *42:8 40.2579 
2 *42:8 *154:A 38 
*END

*D_NET *43 0.000564543
*CONN
*I *155:A I *D sky130_fd_sc_hd__buf_2
*I *115:Y O *D sky130_fd_sc_hd__nor2_1
*CAP
1 *155:A 0.000175348
2 *115:Y 0.000175348
3 *115:B *155:A 5.56279e-05
4 *118:B *155:A 5.50049e-05
5 *17:15 *155:A 4.65096e-05
6 *37:10 *155:A 5.67058e-05
*RES
1 *115:Y *155:A 49.5007 
*END

*D_NET *44 0.00416312
*CONN
*I *127:A1 I *D sky130_fd_sc_hd__a22o_1
*I *121:B I *D sky130_fd_sc_hd__and2b_1
*I *128:A1 I *D sky130_fd_sc_hd__a32o_1
*I *125:A_N I *D sky130_fd_sc_hd__and2b_1
*I *138:X O *D sky130_fd_sc_hd__buf_1
*CAP
1 *127:A1 0.00031697
2 *121:B 0
3 *128:A1 3.87703e-05
4 *125:A_N 0.000147946
5 *138:X 0.000134193
6 *44:52 0.000133425
7 *44:44 0.00064871
8 *44:20 0.000186716
9 *44:18 0.000467874
10 *44:10 0.000403752
11 *127:A1 *127:A2 0.000202732
12 *127:A1 *128:B1 1.21972e-05
13 *127:A1 *46:18 0.000277173
14 *127:A1 *55:10 9.94453e-05
15 *128:A1 *49:14 4.21594e-06
16 *44:44 *128:B1 7.28575e-06
17 ALUControl[2] *125:A_N 4.6318e-06
18 *121:A_N *125:A_N 0.000114423
19 *124:B2 *44:18 5.3304e-05
20 *124:B2 *44:44 0.000240516
21 *127:B1 *127:A1 4.00259e-06
22 *128:A2 *128:A1 6.48142e-05
23 *128:A3 *44:18 4.37586e-06
24 *26:18 *125:A_N 0
25 *26:18 *128:A1 0
26 *26:18 *44:52 0.000136486
27 *28:10 *44:10 0.000111852
28 *33:8 *44:10 0.00010018
29 *33:30 *125:A_N 0.000111852
30 *33:30 *128:A1 2.46345e-05
31 *33:60 *44:10 0
32 *34:10 *127:A1 5.56356e-05
33 *35:10 *44:18 5.50106e-05
*RES
1 *138:X *44:10 40.6514 
2 *44:10 *44:18 19.1221 
3 *44:18 *44:20 15 
4 *44:20 *125:A_N 41.2314 
5 *44:20 *128:A1 39.2014 
6 *44:18 *44:44 3.50071 
7 *44:44 *44:52 32.5271 
8 *44:52 *121:B 23 
9 *44:44 *127:A1 30.685 
*END

*D_NET *45 0.000793482
*CONN
*I *124:A1 I *D sky130_fd_sc_hd__a221o_1
*I *127:B2 I *D sky130_fd_sc_hd__a22o_1
*I *145:X O *D sky130_fd_sc_hd__clkbuf_1
*CAP
1 *124:A1 8.51937e-05
2 *127:B2 0
3 *145:X 0.000101337
4 *45:10 8.51937e-05
5 *45:8 0.000101337
6 *124:A1 *46:18 9.45585e-05
7 *45:8 *46:14 0.000135768
8 *124:A2 *124:A1 1.46586e-05
9 *124:A2 *45:8 4.96811e-06
10 *127:B1 *124:A1 0.000149973
11 *29:8 *45:8 2.04934e-05
*RES
1 *145:X *45:8 39.9057 
2 *45:8 *45:10 15 
3 *45:10 *127:B2 23 
4 *45:10 *124:A1 25.5479 
*END

*D_NET *46 0.00288327
*CONN
*I *129:B I *D sky130_fd_sc_hd__and2_1
*I *127:A2 I *D sky130_fd_sc_hd__a22o_1
*I *128:B1 I *D sky130_fd_sc_hd__a32o_1
*I *124:B1 I *D sky130_fd_sc_hd__a221o_1
*I *157:X O *D sky130_fd_sc_hd__buf_1
*CAP
1 *129:B 4.24211e-05
2 *127:A2 5.03395e-05
3 *128:B1 8.69296e-05
4 *124:B1 0
5 *157:X 0.000150452
6 *46:18 0.000172533
7 *46:14 0.000478758
8 *46:10 0.000535688
9 *46:10 *50:40 0.000130689
10 *46:14 *50:40 1.12863e-05
11 ALUControl[3] *46:10 0
12 *120:D *46:10 5.50106e-05
13 *124:A1 *46:18 9.45585e-05
14 *124:A2 *46:18 1.59379e-05
15 *124:B2 *128:B1 7.5499e-05
16 *124:B2 *46:18 2.02517e-05
17 *127:A1 *127:A2 0.000202732
18 *127:A1 *128:B1 1.21972e-05
19 *127:A1 *46:18 0.000277173
20 *127:B1 *127:A2 1.94812e-05
21 *127:B1 *46:18 1.34914e-05
22 *128:A3 *128:B1 0.000247756
23 *139:A *46:14 0
24 *148:A *46:10 6.17437e-06
25 *36:10 *46:10 4.08537e-05
26 *44:44 *128:B1 7.28575e-06
27 *45:8 *46:14 0.000135768
*RES
1 *157:X *46:10 41.0036 
2 *46:10 *46:14 21.1314 
3 *46:14 *46:18 3.50071 
4 *46:18 *124:B1 23 
5 *46:18 *128:B1 26.2625 
6 *46:14 *127:A2 25.0714 
7 *46:10 *129:B 38.6214 
*END

*D_NET *47 0.00490887
*CONN
*I *119:A1 I *D sky130_fd_sc_hd__o21ai_1
*I *114:A I *D sky130_fd_sc_hd__or2_1
*I *116:A_N I *D sky130_fd_sc_hd__and3b_1
*I *130:C I *D sky130_fd_sc_hd__and3b_1
*I *133:A1 I *D sky130_fd_sc_hd__a31o_1
*I *122:C I *D sky130_fd_sc_hd__and3b_1
*I *135:X O *D sky130_fd_sc_hd__buf_1
*CAP
1 *119:A1 0.000142356
2 *114:A 0
3 *116:A_N 4.996e-05
4 *130:C 0
5 *133:A1 0
6 *122:C 0.000123356
7 *135:X 0.000164661
8 *47:70 0.000589307
9 *47:45 0.000496911
10 *47:18 0.000277373
11 *47:12 0.000244542
12 *47:10 0.000255186
13 *116:A_N *53:6 5.41288e-05
14 *119:A1 *119:A2 2.31687e-05
15 *122:C *122:A_N 1.02387e-05
16 *47:10 *48:8 2.11887e-05
17 *47:10 *48:10 2.89463e-05
18 *47:10 *51:8 1.39317e-05
19 *47:12 *48:10 4.58924e-05
20 *47:18 *122:A_N 4.21594e-06
21 *47:18 *48:10 1.02387e-05
22 *47:18 *48:12 5.5745e-05
23 *47:18 *48:18 4.57973e-05
24 *47:70 *116:C 0.000184527
25 *47:70 *117:A_N 0.000129522
26 *47:70 *119:A2 5.36012e-05
27 *47:70 *48:10 6.12496e-06
28 *47:70 *48:57 1.28818e-05
29 *47:70 *52:30 0.000352415
30 *47:70 *53:6 0.000145784
31 *114:B *47:70 0.000692437
32 *143:A *47:12 0
33 *22:20 *122:C 0.000136486
34 *23:10 *119:A1 2.93845e-05
35 *24:6 *119:A1 0.000143535
36 *24:6 *47:70 0.000146822
37 *24:17 *119:A1 4.08664e-05
38 *31:10 *122:C 7.8128e-05
39 *39:12 *122:C 2.76611e-06
40 *39:12 *47:18 4.31366e-05
41 *41:10 *122:C 5.3304e-05
*RES
1 *135:X *47:10 40.8793 
2 *47:10 *47:12 1.90571 
3 *47:12 *47:18 4.43286 
4 *47:18 *122:C 41.2314 
5 *47:18 *133:A1 38 
6 *47:12 *130:C 38 
7 *47:10 *47:45 15 
8 *47:45 *116:A_N 24.0979 
9 *47:45 *47:70 44.1064 
10 *47:70 *114:A 23 
11 *47:70 *119:A1 26.0036 
*END

*D_NET *48 0.00503655
*CONN
*I *116:B I *D sky130_fd_sc_hd__and3b_1
*I *115:A I *D sky130_fd_sc_hd__nor2_1
*I *117:B I *D sky130_fd_sc_hd__nand2b_1
*I *130:B I *D sky130_fd_sc_hd__and3b_1
*I *131:A I *D sky130_fd_sc_hd__and4_1
*I *122:A_N I *D sky130_fd_sc_hd__and3b_1
*I *136:X O *D sky130_fd_sc_hd__buf_1
*CAP
1 *116:B 4.25104e-05
2 *115:A 0.000139398
3 *117:B 0
4 *130:B 0.000131542
5 *131:A 0.000256561
6 *122:A_N 9.62693e-05
7 *136:X 6.74395e-05
8 *48:57 0.000167832
9 *48:49 0.00072469
10 *48:18 0.0004724
11 *48:12 0.000287605
12 *48:10 0.00060149
13 *48:8 0.000257488
14 *115:A *50:14 1.39317e-05
15 *116:B *53:6 5.50049e-05
16 *131:A *131:C 0.000143655
17 *131:A *131:D 2.4754e-05
18 *48:49 *123:C 5.50106e-05
19 *48:49 *130:A_N 0.000525406
20 *48:49 *53:42 4.6595e-05
21 *48:57 *119:A2 6.39489e-06
22 *48:57 *52:12 0
23 *122:C *122:A_N 1.02387e-05
24 *131:B *131:A 0.000165437
25 *17:15 *115:A 4.344e-05
26 *22:10 *122:A_N 3.0647e-05
27 *22:10 *48:10 3.5664e-05
28 *22:10 *48:12 4.02103e-05
29 *22:10 *48:18 6.63676e-05
30 *22:12 *131:A 5.12254e-05
31 *23:10 *48:57 0
32 *27:10 *48:49 8.06804e-06
33 *31:10 *122:A_N 0.000193388
34 *32:10 *122:A_N 4.48568e-05
35 *40:10 *48:8 0
36 *47:10 *48:8 2.11887e-05
37 *47:10 *48:10 2.89463e-05
38 *47:12 *48:10 4.58924e-05
39 *47:18 *122:A_N 4.21594e-06
40 *47:18 *48:10 1.02387e-05
41 *47:18 *48:12 5.5745e-05
42 *47:18 *48:18 4.57973e-05
43 *47:70 *48:10 6.12496e-06
44 *47:70 *48:57 1.28818e-05
*RES
1 *136:X *48:8 39.2014 
2 *48:8 *48:10 3.31429 
3 *48:10 *48:12 1.55357 
4 *48:12 *48:18 2.67214 
5 *48:18 *122:A_N 40.9621 
6 *48:18 *131:A 44.3386 
7 *48:12 *130:B 39.5743 
8 *48:10 *48:49 23.2443 
9 *48:49 *48:57 32.408 
10 *48:57 *117:B 23 
11 *48:49 *115:A 25.5479 
12 *48:8 *116:B 38.6214 
*END

*D_NET *49 0.00305857
*CONN
*I *120:C I *D sky130_fd_sc_hd__nor4_1
*I *131:D I *D sky130_fd_sc_hd__and4_1
*I *128:B2 I *D sky130_fd_sc_hd__a32o_1
*I *139:X O *D sky130_fd_sc_hd__buf_1
*CAP
1 *120:C 6.31881e-05
2 *131:D 0.000208335
3 *128:B2 0
4 *139:X 0.000331432
5 *49:23 0.000440968
6 *49:14 0.000252224
7 *49:6 0.000753101
8 *120:C *50:14 6.07611e-06
9 *120:C *50:40 0
10 *120:C *53:42 6.07611e-06
11 *131:D *131:C 0.000199197
12 *131:D *50:20 2.18409e-05
13 *120:D *120:C 0
14 *126:B *49:14 1.5769e-05
15 *128:A1 *49:14 4.21594e-06
16 *128:A3 *49:14 0
17 *131:A *131:D 2.4754e-05
18 *131:B *131:D 0.00010018
19 *134:A1 *49:14 0
20 *145:A *49:6 7.87243e-05
21 *25:8 *120:C 1.01436e-05
22 *25:8 *49:14 0
23 *25:8 *49:23 0.000327903
24 *28:10 *49:14 0
25 *38:25 *49:14 0.000214448
*RES
1 *139:X *49:6 28.3857 
2 *49:6 *49:14 34.8886 
3 *49:14 *128:B2 23 
4 *49:6 *49:23 19.3707 
5 *49:23 *131:D 42.5986 
6 *49:23 *120:C 39.2014 
*END

*D_NET *50 0.00199571
*CONN
*I *129:A I *D sky130_fd_sc_hd__and2_1
*I *120:B I *D sky130_fd_sc_hd__nor4_1
*I *131:C I *D sky130_fd_sc_hd__and4_1
*I *140:X O *D sky130_fd_sc_hd__clkbuf_1
*CAP
1 *129:A 0
2 *120:B 0
3 *131:C 6.36326e-05
4 *140:X 0.000202411
5 *50:40 0.00015385
6 *50:20 0.000128191
7 *50:18 0.000241464
8 *50:14 0.000225467
9 *50:14 *53:42 5.11935e-06
10 *115:A *50:14 1.39317e-05
11 *120:C *50:14 6.07611e-06
12 *120:C *50:40 0
13 *120:D *50:20 1.3523e-05
14 *120:D *50:40 0.000190082
15 *131:A *131:C 0.000143655
16 *131:D *131:C 0.000199197
17 *131:D *50:20 2.18409e-05
18 *157:A *131:C 7.53384e-06
19 *157:A *50:20 7.72341e-05
20 *157:A *50:40 0.000103405
21 *27:10 *50:14 5.31444e-05
22 *36:10 *50:40 3.98082e-06
23 *46:10 *50:40 0.000130689
24 *46:14 *50:40 1.12863e-05
*RES
1 *140:X *50:14 41.2936 
2 *50:14 *50:18 15.4971 
3 *50:18 *50:20 1.57429 
4 *50:20 *131:C 26.0036 
5 *50:20 *120:B 23 
6 *50:18 *50:40 34.6607 
7 *50:40 *129:A 23 
*END

*D_NET *51 0.00406852
*CONN
*I *119:A2 I *D sky130_fd_sc_hd__o21ai_1
*I *123:B I *D sky130_fd_sc_hd__nor3_1
*I *136:A I *D sky130_fd_sc_hd__buf_1
*I *141:X O *D sky130_fd_sc_hd__buf_1
*CAP
1 *119:A2 0.000389138
2 *123:B 0.000175625
3 *136:A 2.34823e-05
4 *141:X 0.000276974
5 *51:21 0.000938457
6 *51:8 0.00067415
7 *119:A2 *117:A_N 7.88926e-05
8 *119:A2 *52:30 2.64616e-05
9 *123:B *52:8 5.24393e-05
10 *123:B *52:12 0.000185755
11 *123:B *53:29 0.000262829
12 *123:B *53:42 5.50106e-05
13 *136:A *53:16 0
14 *51:8 *53:16 0.00010655
15 *51:21 *52:8 0.000114092
16 *51:21 *53:16 6.68822e-05
17 MemWrite *51:21 0.000143655
18 *119:A1 *119:A2 2.31687e-05
19 *142:A *51:21 7.08911e-05
20 *22:10 *123:B 0
21 *24:6 *119:A2 0.000276834
22 *24:17 *119:A2 5.3304e-05
23 *40:10 *51:21 0
24 *47:10 *51:8 1.39317e-05
25 *47:70 *119:A2 5.36012e-05
26 *48:57 *119:A2 6.39489e-06
*RES
1 *141:X *51:8 28.4064 
2 *51:8 *136:A 23.4971 
3 *51:8 *51:21 22.8714 
4 *51:21 *123:B 42.64 
5 *51:21 *119:A2 45.7679 
*END

*D_NET *52 0.00355447
*CONN
*I *117:A_N I *D sky130_fd_sc_hd__nand2b_1
*I *113:A I *D sky130_fd_sc_hd__inv_2
*I *116:C I *D sky130_fd_sc_hd__and3b_1
*I *123:C I *D sky130_fd_sc_hd__nor3_1
*I *130:A_N I *D sky130_fd_sc_hd__and3b_1
*I *142:X O *D sky130_fd_sc_hd__buf_1
*CAP
1 *117:A_N 2.81513e-05
2 *113:A 0
3 *116:C 0.000134872
4 *123:C 1.00761e-05
5 *130:A_N 0.000204058
6 *142:X 9.81222e-05
7 *52:30 0.000251444
8 *52:28 0.000144723
9 *52:12 0.000348605
10 *52:8 0.000232593
11 *116:C *53:6 1.22822e-05
12 *123:C *53:42 4.34745e-05
13 *130:A_N *53:42 9.5877e-05
14 *52:30 *53:6 2.93747e-05
15 *52:30 *53:29 0.000144067
16 *114:B *116:C 5.50106e-05
17 *114:B *52:30 1.72202e-05
18 *119:A2 *117:A_N 7.88926e-05
19 *119:A2 *52:30 2.64616e-05
20 *123:B *52:8 5.24393e-05
21 *123:B *52:12 0.000185755
22 *47:70 *116:C 0.000184527
23 *47:70 *117:A_N 0.000129522
24 *47:70 *52:30 0.000352415
25 *48:49 *123:C 5.50106e-05
26 *48:49 *130:A_N 0.000525406
27 *48:57 *52:12 0
28 *51:21 *52:8 0.000114092
*RES
1 *142:X *52:8 40.2579 
2 *52:8 *52:12 17.61 
3 *52:12 *130:A_N 28.8621 
4 *52:12 *123:C 23.6214 
5 *52:8 *52:28 15 
6 *52:28 *52:30 4.43286 
7 *52:30 *116:C 26.0243 
8 *52:30 *113:A 23 
9 *52:28 *117:A_N 24.5743 
*END

*D_NET *53 0.00374485
*CONN
*I *120:A I *D sky130_fd_sc_hd__nor4_1
*I *123:A I *D sky130_fd_sc_hd__nor3_1
*I *135:A I *D sky130_fd_sc_hd__buf_1
*I *143:X O *D sky130_fd_sc_hd__buf_1
*CAP
1 *120:A 0
2 *123:A 0
3 *135:A 0
4 *143:X 0.000275916
5 *53:42 0.000201819
6 *53:29 0.000520523
7 *53:16 0.000285706
8 *53:6 0.000880325
9 *116:A_N *53:6 5.41288e-05
10 *116:B *53:6 5.50049e-05