*SPEF "ieee 1481-1999"
*DESIGN "Sign_Extender"
*DATE "18:01:20 Thursday November 13, 2025"
*VENDOR "The OpenROAD Project"
*PROGRAM "OpenROAD"
*VERSION "edf00dff99f6c40d67a30c0e22a8191c5d2ed9d6"
*DESIGN_FLOW "NAME_SCOPE LOCAL" "PIN_CAP NONE"
*DIVIDER /
*DELIMITER :
*BUS_DELIMITER []
*T_UNIT 1 NS
*C_UNIT 1 PF
*R_UNIT 1 OHM
*L_UNIT 1 HENRY

*NAME_MAP
*1 ImmExt[0]
*2 ImmExt[10]
*3 ImmExt[11]
*4 ImmExt[12]
*5 ImmExt[13]
*6 ImmExt[14]
*7 ImmExt[15]
*8 ImmExt[1]
*9 ImmExt[2]
*10 ImmExt[3]
*11 ImmExt[4]
*12 ImmExt[5]
*13 ImmExt[6]
*14 ImmExt[7]
*15 ImmExt[8]
*16 ImmExt[9]
*17 ImmSrc[0]
*18 ImmSrc[1]
*21 instr[0]
*22 instr[10]
*23 instr[11]
*24 instr[12]
*25 instr[13]
*26 instr[14]
*27 instr[15]
*28 instr[1]
*29 instr[2]
*30 instr[3]
*31 instr[4]
*32 instr[5]
*33 instr[6]
*34 instr[7]
*35 instr[8]
*36 instr[9]
*37 _00_
*38 _01_
*39 _02_
*40 _03_
*41 _04_
*42 _05_
*43 net1
*44 net10
*45 net11
*46 net12
*47 net13
*48 net14
*49 net15
*50 net16
*51 net17
*52 net18
*53 net19
*54 net2
*55 net20
*56 net21
*57 net22
*58 net23
*59 net24
*60 net25
*61 net26
*62 net27
*63 net28
*64 net29
*65 net3
*66 net30
*67 net31
*68 net4
*69 net5
*70 net6
*71 net7
*72 net8
*73 net9
*74 FILLER_0_15
*75 FILLER_0_27
*76 FILLER_0_29
*77 FILLER_0_3
*78 FILLER_0_35
*79 FILLER_0_42
*80 FILLER_0_48
*81 FILLER_0_55
*82 FILLER_0_57
*83 FILLER_0_63
*84 FILLER_0_70
*85 FILLER_0_77
*86 FILLER_0_83
*87 FILLER_0_85
*88 FILLER_10_19
*89 FILLER_10_27
*90 FILLER_10_29
*91 FILLER_10_41
*92 FILLER_10_53
*93 FILLER_10_65
*94 FILLER_10_7
*95 FILLER_10_77
*96 FILLER_10_83
*97 FILLER_10_85
*98 FILLER_11_19
*99 FILLER_11_31
*100 FILLER_11_43
*101 FILLER_11_55
*102 FILLER_11_57
*103 FILLER_11_69
*104 FILLER_11_7
*105 FILLER_11_81
*106 FILLER_11_92
*107 FILLER_12_18
*108 FILLER_12_26
*109 FILLER_12_29
*110 FILLER_12_33
*111 FILLER_12_47
*112 FILLER_12_6
*113 FILLER_12_65
*114 FILLER_12_77
*115 FILLER_12_83
*116 FILLER_12_85
*117 FILLER_12_93
*118 FILLER_13_15
*119 FILLER_13_27
*120 FILLER_13_3
*121 FILLER_13_39
*122 FILLER_13_51
*123 FILLER_13_55
*124 FILLER_13_61
*125 FILLER_13_73
*126 FILLER_13_85
*127 FILLER_14_15
*128 FILLER_14_27
*129 FILLER_14_29
*130 FILLER_14_3
*131 FILLER_14_41
*132 FILLER_14_53
*133 FILLER_14_65
*134 FILLER_14_73
*135 FILLER_14_81
*136 FILLER_14_85
*137 FILLER_15_15
*138 FILLER_15_27
*139 FILLER_15_3
*140 FILLER_15_39
*141 FILLER_15_51
*142 FILLER_15_55
*143 FILLER_15_57
*144 FILLER_15_69
*145 FILLER_15_81
*146 FILLER_15_93
*147 FILLER_16_15
*148 FILLER_16_27
*149 FILLER_16_29
*150 FILLER_16_3
*151 FILLER_16_37
*152 FILLER_16_42
*153 FILLER_16_48
*154 FILLER_16_57
*155 FILLER_16_63
*156 FILLER_16_70
*157 FILLER_16_76
*158 FILLER_16_85
*159 FILLER_1_15
*160 FILLER_1_27
*161 FILLER_1_3
*162 FILLER_1_35
*163 FILLER_1_47
*164 FILLER_1_55
*165 FILLER_1_57
*166 FILLER_1_69
*167 FILLER_1_81
*168 FILLER_1_93
*169 FILLER_2_15
*170 FILLER_2_27
*171 FILLER_2_29
*172 FILLER_2_3
*173 FILLER_2_46
*174 FILLER_2_58
*175 FILLER_2_77
*176 FILLER_2_83
*177 FILLER_2_85
*178 FILLER_2_93
*179 FILLER_3_15
*180 FILLER_3_27
*181 FILLER_3_3
*182 FILLER_3_39
*183 FILLER_3_51
*184 FILLER_3_55
*185 FILLER_3_57
*186 FILLER_3_69
*187 FILLER_3_81
*188 FILLER_3_93
*189 FILLER_4_15
*190 FILLER_4_27
*191 FILLER_4_29
*192 FILLER_4_3
*193 FILLER_4_41
*194 FILLER_4_53
*195 FILLER_4_65
*196 FILLER_4_73
*197 FILLER_4_85
*198 FILLER_4_93
*199 FILLER_5_19
*200 FILLER_5_27
*201 FILLER_5_42
*202 FILLER_5_54
*203 FILLER_5_57
*204 FILLER_5_69
*205 FILLER_5_7
*206 FILLER_5_81
*207 FILLER_5_93
*208 FILLER_6_19
*209 FILLER_6_27
*210 FILLER_6_29
*211 FILLER_6_41
*212 FILLER_6_53
*213 FILLER_6_65
*214 FILLER_6_7
*215 FILLER_6_77
*216 FILLER_6_83
*217 FILLER_6_85
*218 FILLER_7_19
*219 FILLER_7_33
*220 FILLER_7_45
*221 FILLER_7_57
*222 FILLER_7_7
*223 FILLER_7_75
*224 FILLER_7_87
*225 FILLER_8_15
*226 FILLER_8_27
*227 FILLER_8_29
*228 FILLER_8_3
*229 FILLER_8_40
*230 FILLER_8_46
*231 FILLER_8_65
*232 FILLER_8_77
*233 FILLER_8_83
*234 FILLER_8_85
*235 FILLER_9_18
*236 FILLER_9_26
*237 FILLER_9_35
*238 FILLER_9_47
*239 FILLER_9_55
*240 FILLER_9_57
*241 FILLER_9_6
*242 FILLER_9_69
*243 FILLER_9_77
*244 FILLER_9_87
*245 FILLER_9_93
*246 PHY_EDGE_ROW_0_Left_17
*247 PHY_EDGE_ROW_0_Right_0
*248 PHY_EDGE_ROW_10_Left_27
*249 PHY_EDGE_ROW_10_Right_10
*250 PHY_EDGE_ROW_11_Left_28
*251 PHY_EDGE_ROW_11_Right_11
*252 PHY_EDGE_ROW_12_Left_29
*253 PHY_EDGE_ROW_12_Right_12
*254 PHY_EDGE_ROW_13_Left_30
*255 PHY_EDGE_ROW_13_Right_13
*256 PHY_EDGE_ROW_14_Left_31
*257 PHY_EDGE_ROW_14_Right_14
*258 PHY_EDGE_ROW_15_Left_32
*259 PHY_EDGE_ROW_15_Right_15
*260 PHY_EDGE_ROW_16_Left_33
*261 PHY_EDGE_ROW_16_Right_16
*262 PHY_EDGE_ROW_1_Left_18
*263 PHY_EDGE_ROW_1_Right_1
*264 PHY_EDGE_ROW_2_Left_19
*265 PHY_EDGE_ROW_2_Right_2
*266 PHY_EDGE_ROW_3_Left_20
*267 PHY_EDGE_ROW_3_Right_3
*268 PHY_EDGE_ROW_4_Left_21
*269 PHY_EDGE_ROW_4_Right_4
*270 PHY_EDGE_ROW_5_Left_22
*271 PHY_EDGE_ROW_5_Right_5
*272 PHY_EDGE_ROW_6_Left_23
*273 PHY_EDGE_ROW_6_Right_6
*274 PHY_EDGE_ROW_7_Left_24
*275 PHY_EDGE_ROW_7_Right_7
*276 PHY_EDGE_ROW_8_Left_25
*277 PHY_EDGE_ROW_8_Right_8
*278 PHY_EDGE_ROW_9_Left_26
*279 PHY_EDGE_ROW_9_Right_9
*280 TAP_TAPCELL_ROW_0_34
*281 TAP_TAPCELL_ROW_0_35
*282 TAP_TAPCELL_ROW_0_36
*283 TAP_TAPCELL_ROW_10_50
*284 TAP_TAPCELL_ROW_10_51
*285 TAP_TAPCELL_ROW_11_52
*286 TAP_TAPCELL_ROW_12_53
*287 TAP_TAPCELL_ROW_12_54
*288 TAP_TAPCELL_ROW_13_55
*289 TAP_TAPCELL_ROW_14_56
*290 TAP_TAPCELL_ROW_14_57
*291 TAP_TAPCELL_ROW_15_58
*292 TAP_TAPCELL_ROW_16_59
*293 TAP_TAPCELL_ROW_16_60
*294 TAP_TAPCELL_ROW_16_61
*295 TAP_TAPCELL_ROW_1_37
*296 TAP_TAPCELL_ROW_2_38
*297 TAP_TAPCELL_ROW_2_39
*298 TAP_TAPCELL_ROW_3_40
*299 TAP_TAPCELL_ROW_4_41
*300 TAP_TAPCELL_ROW_4_42
*301 TAP_TAPCELL_ROW_5_43
*302 TAP_TAPCELL_ROW_6_44
*303 TAP_TAPCELL_ROW_6_45
*304 TAP_TAPCELL_ROW_7_46
*305 TAP_TAPCELL_ROW_8_47
*306 TAP_TAPCELL_ROW_8_48
*307 TAP_TAPCELL_ROW_9_49
*308 _06_
*309 _07_
*310 _08_
*311 _09_
*312 _10_
*313 _11_
*314 _12_
*315 _13_
*316 _14_
*317 _15_
*318 _16_
*319 _17_
*320 _18_
*321 _19_
*322 _20_
*323 _21_
*324 _22_
*325 _23_
*326 _24_
*327 _25_
*328 _26_
*329 _27_
*330 fanout30
*331 fanout31
*332 input1
*333 input10
*334 input11
*335 input12
*336 input2
*337 input3
*338 input4
*339 input5
*340 input6
*341 input7
*342 input8
*343 input9
*344 max_cap29
*345 output13
*346 output14
*347 output15
*348 output16
*349 output17
*350 output18
*351 output19
*352 output20
*353 output21
*354 output22
*355 output23
*356 output24
*357 output25
*358 output26
*359 output27
*360 output28

*PORTS
ImmExt[0] O
ImmExt[10] O
ImmExt[11] O
ImmExt[12] O
ImmExt[13] O
ImmExt[14] O
ImmExt[15] O
ImmExt[1] O
ImmExt[2] O
ImmExt[3] O
ImmExt[4] O
ImmExt[5] O
ImmExt[6] O
ImmExt[7] O
ImmExt[8] O
ImmExt[9] O
ImmSrc[0] I
ImmSrc[1] I
instr[0] I
instr[10] I
instr[11] I
instr[12] I
instr[13] I
instr[14] I
instr[15] I
instr[1] I
instr[2] I
instr[3] I
instr[4] I
instr[5] I
instr[6] I
instr[7] I
instr[8] I
instr[9] I

*D_NET *1 0.000925633
*CONN
*P ImmExt[0] O
*I *345:X O *D sky130_fd_sc_hd__buf_2
*CAP
1 ImmExt[0] 0.000462816
2 *345:X 0.000462816
3 ImmExt[0] ImmExt[9] 0
*RES
1 *345:X ImmExt[0] 47.0936 
*END

*D_NET *2 0.000608838
*CONN
*P ImmExt[10] O
*I *346:X O *D sky130_fd_sc_hd__buf_2
*CAP
1 ImmExt[10] 0.000220424
2 *346:X 0.000220424
3 ImmExt[10] ImmExt[15] 8.97484e-05
4 ImmExt[10] ImmExt[1] 0
5 ImmExt[10] *337:A 7.82427e-05
6 ImmExt[10] *48:8 0
*RES
1 *346:X ImmExt[10] 47.8691 
*END

*D_NET *3 0.000936389
*CONN
*P ImmExt[11] O
*I *347:X O *D sky130_fd_sc_hd__buf_2
*CAP
1 ImmExt[11] 0.000468195
2 *347:X 0.000468195
3 ImmExt[11] ImmExt[12] 0
*RES
1 *347:X ImmExt[11] 47.0936 
*END

*D_NET *4 0.00102342
*CONN
*P ImmExt[12] O
*I *348:X O *D sky130_fd_sc_hd__buf_2
*CAP
1 ImmExt[12] 0.00049314
2 *348:X 0.00049314
3 ImmExt[12] *339:A 0
4 ImmExt[12] *347:A 3.71369e-05
5 ImmExt[11] ImmExt[12] 0
*RES
1 *348:X ImmExt[12] 47.57 
*END

*D_NET *5 0.000910495
*CONN
*P ImmExt[13] O
*I *349:X O *D sky130_fd_sc_hd__buf_2
*CAP
1 ImmExt[13] 0.000455248
2 *349:X 0.000455248
3 ImmExt[13] *340:A 0
*RES
1 *349:X ImmExt[13] 47.3836 
*END

*D_NET *6 0.000529757
*CONN
*P ImmExt[14] O
*I *350:X O *D sky130_fd_sc_hd__buf_2
*CAP
1 ImmExt[14] 0.000186306
2 *350:X 0.000186306
3 ImmExt[14] ImmExt[1] 7.89025e-05
4 ImmExt[14] *343:A 7.82427e-05
*RES
1 *350:X ImmExt[14] 47.1648 
*END

*D_NET *7 0.00054781
*CONN
*P ImmExt[15] O
*I *351:X O *D sky130_fd_sc_hd__buf_2
*CAP
1 ImmExt[15] 0.000193089
2 *351:X 0.000193089
3 ImmExt[15] *342:A 7.18837e-05
4 ImmExt[10] ImmExt[15] 8.97484e-05
*RES
1 *351:X ImmExt[15] 47.5169 
*END

*D_NET *8 0.000521671
*CONN
*P ImmExt[1] O
*I *352:X O *D sky130_fd_sc_hd__buf_2
*CAP
1 ImmExt[1] 0.000181077
2 *352:X 0.000181077
3 ImmExt[1] *337:A 8.06147e-05
4 ImmExt[10] ImmExt[1] 0
5 ImmExt[14] ImmExt[1] 7.89025e-05
*RES
1 *352:X ImmExt[1] 47.1648 
*END

*D_NET *9 0.00076859
*CONN
*P ImmExt[2] O
*I *353:X O *D sky130_fd_sc_hd__buf_2
*CAP
1 ImmExt[2] 8.68308e-05
2 *353:X 0.000283508
3 *9:14 0.000370339
4 ImmExt[2] ImmExt[3] 1.5289e-05
5 *9:14 ImmExt[3] 1.26232e-05
*RES
1 *353:X *9:14 49.9 
2 *9:14 ImmExt[2] 0.382667 
*END

*D_NET *10 0.000545003
*CONN
*P ImmExt[3] O
*I *354:X O *D sky130_fd_sc_hd__buf_2
*CAP
1 ImmExt[3] 0.000242922
2 *354:X 0.000242922
3 ImmExt[3] ImmExt[5] 1.5289e-05
4 ImmExt[3] *341:A 0
5 ImmExt[3] *12:14 1.59585e-05
6 ImmExt[2] ImmExt[3] 1.5289e-05
7 *9:14 ImmExt[3] 1.26232e-05
*RES
1 *354:X ImmExt[3] 47.1648 
*END

*D_NET *11 0.000762474
*CONN
*P ImmExt[4] O
*I *355:X O *D sky130_fd_sc_hd__buf_2
*CAP
1 ImmExt[4] 7.67726e-05
2 *355:X 0.000279886
3 *11:14 0.000356658
4 ImmExt[4] *336:A 1.5289e-05
5 ImmExt[4] *341:A 2.12457e-05
6 *11:14 *336:A 1.26232e-05
7 *11:14 *341:A 0
*RES
1 *355:X *11:14 49.9 
2 *11:14 ImmExt[4] 0.382667 
*END

*D_NET *12 0.000762608
*CONN
*P ImmExt[5] O
*I *356:X O *D sky130_fd_sc_hd__buf_2
*CAP
1 ImmExt[5] 7.65184e-05
2 *356:X 0.000278539
3 *12:14 0.000355058
4 ImmExt[5] *341:A 2.12457e-05
5 ImmExt[3] ImmExt[5] 1.5289e-05
6 ImmExt[3] *12:14 1.59585e-05
*RES
1 *356:X *12:14 49.9 
2 *12:14 ImmExt[5] 0.382667 
*END

*D_NET *13 0.000935434
*CONN
*P ImmExt[6] O
*I *357:X O *D sky130_fd_sc_hd__buf_2
*CAP
1 ImmExt[6] 0.000467717
2 *357:X 0.000467717
3 ImmExt[6] ImmExt[7] 0
*RES
1 *357:X ImmExt[6] 47.0936 
*END

*D_NET *14 0.000935434
*CONN
*P ImmExt[7] O
*I *358:X O *D sky130_fd_sc_hd__buf_2
*CAP
1 ImmExt[7] 0.000467717
2 *358:X 0.000467717
3 ImmExt[7] ImmExt[8] 0
4 ImmExt[6] ImmExt[7] 0
*RES
1 *358:X ImmExt[7] 47.0936 
*END

*D_NET *15 0.000999418
*CONN
*P ImmExt[8] O
*I *359:X O *D sky130_fd_sc_hd__buf_2
*CAP
1 ImmExt[8] 0.000499709
2 *359:X 0.000499709
3 ImmExt[8] *338:A 0
4 ImmExt[7] ImmExt[8] 0
*RES
1 *359:X ImmExt[8] 47.57 
*END

*D_NET *16 0.00100278
*CONN
*P ImmExt[9] O
*I *360:X O *D sky130_fd_sc_hd__buf_2
*CAP
1 ImmExt[9] 0.000489874
2 *360:X 0.000489874
3 ImmExt[9] *335:A 0
4 ImmExt[9] *360:A 2.30292e-05
5 ImmExt[0] ImmExt[9] 0
*RES
1 *360:X ImmExt[9] 47.57 
*END

*D_NET *17 0.000658406
*CONN
*P ImmSrc[0] I
*I *332:A I *D sky130_fd_sc_hd__buf_1
*CAP
1 ImmSrc[0] 0.00031858
2 *332:A 0
3 *17:17 0.00031858
4 *17:17 *336:A 2.12457e-05
*RES
1 ImmSrc[0] *17:17 27.1584 
2 *17:17 *332:A 23 
*END

*D_NET *18 0.000632507
*CONN
*P ImmSrc[1] I
*I *336:A I *D sky130_fd_sc_hd__clkbuf_2
*CAP
1 ImmSrc[1] 0.000291674
2 *336:A 0.000291674
3 *336:A *341:A 0
4 ImmExt[4] *336:A 1.5289e-05
5 *11:14 *336:A 1.26232e-05
6 *17:17 *336:A 2.12457e-05
*RES
1 ImmSrc[1] *336:A 48.2212 
*END

*D_NET *22 0.000713385
*CONN
*P instr[10] I
*I *337:A I *D sky130_fd_sc_hd__clkbuf_1
*CAP
1 instr[10] 0.000277264
2 *337:A 0.000277264
3 ImmExt[10] *337:A 7.82427e-05
4 ImmExt[1] *337:A 8.06147e-05
*RES
1 instr[10] *337:A 49.5439 
*END

*D_NET *23 0.00100871
*CONN
*P instr[11] I
*I *338:A I *D sky130_fd_sc_hd__clkbuf_1
*CAP
1 instr[11] 0.000494614
2 *338:A 0.000494614
3 *338:A *339:A 0
4 *338:A *68:10 1.94812e-05
5 ImmExt[8] *338:A 0
*RES
1 instr[11] *338:A 48.2743 
*END

*D_NET *24 0.00101601
*CONN
*P instr[12] I
*I *339:A I *D sky130_fd_sc_hd__clkbuf_1
*CAP
1 instr[12] 0.000503462
2 *339:A 0.000503462
3 *339:A *50:8 0
4 *339:A *68:10 5.37348e-06
5 *339:A *69:10 3.7122e-06
6 ImmExt[12] *339:A 0
7 *338:A *339:A 0
*RES
1 instr[12] *339:A 48.5643 
*END

*D_NET *25 0.000933352
*CONN
*P instr[13] I
*I *340:A I *D sky130_fd_sc_hd__buf_1
*CAP
1 instr[13] 0.000466676
2 *340:A 0.000466676
3 ImmExt[13] *340:A 0
*RES
1 instr[13] *340:A 47.6736 
*END

*D_NET *26 0.000732544
*CONN
*P instr[14] I
*I *341:A I *D sky130_fd_sc_hd__buf_1
*CAP
1 instr[14] 0.000345026
2 *341:A 0.000345026
3 ImmExt[3] *341:A 0
4 ImmExt[4] *341:A 2.12457e-05
5 ImmExt[5] *341:A 2.12457e-05
6 *336:A *341:A 0
7 *11:14 *341:A 0
*RES
1 instr[14] *341:A 49.5439 
*END

*D_NET *27 0.000462589
*CONN
*P instr[15] I
*I *342:A I *D sky130_fd_sc_hd__clkbuf_1
*CAP
1 instr[15] 0.000195352
2 *342:A 0.000195352
3 *342:A *329:A 0
4 ImmExt[15] *342:A 7.18837e-05
*RES
1 instr[15] *342:A 47.0789 
*END

*D_NET *33 0.000662136
*CONN
*P instr[6] I
*I *343:A I *D sky130_fd_sc_hd__clkbuf_1
*CAP
1 instr[6] 0.000252825
2 *343:A 0.000252825
3 *343:A *333:A 7.82427e-05
4 ImmExt[14] *343:A 7.82427e-05
*RES
1 instr[6] *343:A 48.8397 
*END

*D_NET *34 0.000695852
*CONN
*P instr[7] I
*I *333:A I *D sky130_fd_sc_hd__clkbuf_1
*CAP
1 instr[7] 0.00023576
2 *333:A 0.00023576
3 *333:A *334:A 8.06147e-05
4 *333:A *44:8 6.54744e-05
5 *343:A *333:A 7.82427e-05
*RES
1 instr[7] *333:A 49.1918 
*END

*D_NET *35 0.000444689
*CONN
*P instr[8] I
*I *334:A I *D sky130_fd_sc_hd__clkbuf_1
*CAP
1 instr[8] 0.000176909
2 *334:A 0.000176909
3 *334:A *44:8 1.02561e-05
4 *333:A *334:A 8.06147e-05
*RES
1 instr[8] *334:A 47.0789 
*END

*D_NET *36 0.00104684
*CONN
*P instr[9] I
*I *335:A I *D sky130_fd_sc_hd__clkbuf_1
*CAP
1 instr[9] 0.000523419
2 *335:A 0.000523419
3 ImmExt[9] *335:A 0
*RES
1 instr[9] *335:A 48.6264 
*END

*D_NET *37 0.000126903
*CONN
*I *309:B1_N I *D sky130_fd_sc_hd__a21bo_1
*I *308:X O *D sky130_fd_sc_hd__or3b_1
*CAP
1 *309:B1_N 3.50987e-05
2 *308:X 3.50987e-05
3 *309:B1_N *66:125 5.67058e-05
*RES
1 *308:X *309:B1_N 46.6214 
*END

*D_NET *38 0.000505687
*CONN
*I *311:B1_N I *D sky130_fd_sc_hd__a21bo_1
*I *310:X O *D sky130_fd_sc_hd__or3b_1
*CAP
1 *311:B1_N 0
2 *310:X 0.000169102
3 *38:10 0.000169102
4 *38:10 *66:107 0.000139582
5 *38:10 *71:29 2.79004e-05
*RES
1 *310:X *38:10 40.7757 
2 *38:10 *311:B1_N 38 
*END

*D_NET *39 0.000833512
*CONN
*I *315:B1 I *D sky130_fd_sc_hd__a21o_1
*I *344:A I *D sky130_fd_sc_hd__buf_1
*I *312:Y O *D sky130_fd_sc_hd__nor3b_1
*CAP
1 *315:B1 0
2 *344:A 0.00021679
3 *312:Y 0
4 *39:21 0.000117685
5 *39:4 0.000334475
6 *344:A *312:A 1.59071e-05
7 *344:A *66:107 6.23756e-05
8 *39:21 *54:25 0
9 *39:21 *70:42 0
10 *39:21 *71:10 8.62783e-05
*RES
1 *312:Y *39:4 23 
2 *39:4 *344:A 27.35 
3 *39:4 *39:21 32.2579 
4 *39:21 *315:B1 23 
*END

*D_NET *40 0.0125025
*CONN
*I *321:S I *D sky130_fd_sc_hd__mux2_1
*I *326:A2 I *D sky130_fd_sc_hd__a21o_1
*I *322:S I *D sky130_fd_sc_hd__mux2_1
*I *318:S I *D sky130_fd_sc_hd__mux2_1
*I *319:S I *D sky130_fd_sc_hd__mux2_1
*I *320:S I *D sky130_fd_sc_hd__mux2_1
*I *324:S I *D sky130_fd_sc_hd__mux2_1
*I *323:S I *D sky130_fd_sc_hd__mux2_1
*I *328:A2 I *D sky130_fd_sc_hd__a21o_1
*I *317:Y O *D sky130_fd_sc_hd__nand2b_4
*CAP
1 *321:S 0.000367436
2 *326:A2 0.000347016
3 *322:S 9.14513e-05
4 *318:S 3.41077e-05
5 *319:S 0
6 *320:S 0
7 *324:S 0
8 *323:S 6.2699e-05
9 *328:A2 0.000161313
10 *317:Y 0.000183631
11 *40:99 0.00118239
12 *40:66 0.000152493
13 *40:51 0.000585379
14 *40:49 0.000532512
15 *40:47 0.000531925
16 *40:37 0.00100043
17 *40:33 0.0010278
18 *40:18 0.000823643
19 *40:10 0.000974271
20 *321:S *46:12 3.3577e-05
21 *321:S *47:10 0.000141879
22 *321:S *67:8 2.26489e-05
23 *322:S *65:18 8.51432e-05
24 *322:S *66:23 0
25 *323:S *323:A1 2.93335e-05
26 *323:S *66:35 2.64616e-05
27 *326:A2 *308:B 0.000228903
28 *326:A2 *308:C_N 0.000104519
29 *326:A2 *309:A1 9.84851e-05
30 *326:A2 *46:20 1.24376e-05
31 *326:A2 *66:125 0.000181321
32 *326:A2 *70:27 5.50049e-05
33 *328:A2 *66:23 0.00010803
34 *328:A2 *66:25 0.000124102
35 *328:A2 *66:27 1.14452e-05
36 *40:10 *310:A 0.000317553
37 *40:10 *66:107 4.75087e-05
38 *40:10 *67:14 2.5415e-05
39 *40:10 *67:16 0.000317553
40 *40:18 *66:23 0.000111852
41 *40:33 *66:95 1.05235e-05
42 *40:37 *65:18 9.74132e-05
43 *40:37 *66:23 0
44 *40:37 *66:25 0
45 *40:37 *66:27 0
46 *40:37 *73:10 0.000139647
47 *40:47 *318:A1 7.88926e-05
48 *40:47 *45:8 8.43466e-05
49 *40:47 *60:10 0.000355699
50 *40:47 *66:27 0
51 *40:47 *66:31 0
52 *40:47 *73:10 1.83564e-05
53 *40:49 *45:8 0.000388668
54 *40:51 *45:8 0.000143655
55 *40:51 *66:35 0.000407274
56 *40:66 *66:50 0.000112074
57 *40:66 *68:10 0.000167443
58 *40:66 *68:25 7.70737e-05
59 *40:66 *69:10 0
60 *40:66 *69:26 0
61 *40:99 *46:20 0
62 *40:99 *47:10 1.14452e-05
63 *40:99 *66:19 0
64 *40:99 *66:21 0
65 *40:99 *66:23 0
66 *40:99 *67:8 2.76611e-06
67 *40:99 *67:10 1.62015e-05
68 *40:99 *67:14 0.000249354
*RES
1 *317:Y *40:10 44.4629 
2 *40:10 *40:18 35.0336 
3 *40:18 *328:A2 41.3143 
4 *40:18 *40:33 35.3857 
5 *40:33 *40:37 26.7657 
6 *40:37 *40:47 38.4514 
7 *40:47 *40:49 4.43286 
8 *40:49 *40:51 9.67357 
9 *40:51 *323:S 24.0979 
10 *40:51 *40:66 33.9357 
11 *40:66 *324:S 23 
12 *40:49 *320:S 23 
13 *40:47 *319:S 23 
14 *40:37 *318:S 23.6214 
15 *40:33 *322:S 40.2579 
16 *40:10 *40:99 10.3571 
17 *40:99 *326:A2 47.4043 
18 *40:99 *321:S 45.0014 
*END

*D_NET *41 0.000323888
*CONN
*I *326:B1 I *D sky130_fd_sc_hd__a21o_1
*I *325:X O *D sky130_fd_sc_hd__and3b_1
*CAP
1 *326:B1 0.000121151
2 *325:X 0.000121151
3 *326:B1 *70:27 8.15864e-05
*RES
1 *325:X *326:B1 48.4236 
*END

*D_NET *42 0.00145412
*CONN
*I *328:B1 I *D sky130_fd_sc_hd__a21o_1
*I *327:X O *D sky130_fd_sc_hd__and3b_1
*CAP
1 *328:B1 0
2 *327:X 0.000340817
3 *42:12 0.000340817
4 *42:12 *311:A1 0.000250617
5 *42:12 *55:8 0.000102093
6 *42:12 *65:18 0.000277826
7 *42:12 *71:29 0.000141954
*RES
1 *327:X *42:12 33.0879 
2 *42:12 *328:B1 23 
*END

*D_NET *43 0.00544803
*CONN
*I *331:A I *D sky130_fd_sc_hd__buf_2
*I *315:A1 I *D sky130_fd_sc_hd__a21o_1
*I *325:A_N I *D sky130_fd_sc_hd__and3b_1
*I *332:X O *D sky130_fd_sc_hd__buf_1
*CAP
1 *331:A 0.000660221
2 *315:A1 0.000456663
3 *325:A_N 0
4 *332:X 0.000774677
5 *43:17 0.00126013
6 *43:8 0.000917918
7 *315:A1 *308:C_N 0
8 *315:A1 *54:25 0.00041129
9 *315:A1 *70:42 0.000696638
10 *331:A *51:10 0.000167443
11 *331:A *70:42 5.24393e-05
12 *43:17 *54:14 1.59094e-05
13 *43:17 *70:27 3.47095e-05
*RES
1 *332:X *43:8 37.4586 
2 *43:8 *325:A_N 23 
3 *43:8 *43:17 17.5271 
4 *43:17 *315:A1 48.8957 
5 *43:17 *331:A 49.6829 
*END

*D_NET *44 0.00257744
*CONN
*I *319:A0 I *D sky130_fd_sc_hd__mux2_1
*I *333:X O *D sky130_fd_sc_hd__clkbuf_1
*CAP
1 *319:A0 0.000418266
2 *333:X 0.000321553
3 *44:8 0.000739819
4 *319:A0 *319:A1 5.67058e-05
5 *319:A0 *45:8 0.000965367
6 *333:A *44:8 6.54744e-05
7 *334:A *44:8 1.02561e-05
*RES
1 *333:X *44:8 43.4271 
2 *44:8 *319:A0 48.6264 
*END

*D_NET *45 0.00275005
*CONN
*I *320:A0 I *D sky130_fd_sc_hd__mux2_1
*I *334:X O *D sky130_fd_sc_hd__clkbuf_1
*CAP
1 *320:A0 0
2 *334:X 0.00039848
3 *45:8 0.00039848
4 *45:8 *319:A1 4.19743e-05
5 *45:8 *66:33 0.000272377
6 *45:8 *66:35 5.67058e-05
7 *319:A0 *45:8 0.000965367
8 *40:47 *45:8 8.43466e-05
9 *40:49 *45:8 0.000388668
10 *40:51 *45:8 0.000143655
*RES
1 *334:X *45:8 38.7636 
2 *45:8 *320:A0 23 
*END

*D_NET *46 0.00199248
*CONN
*I *321:A0 I *D sky130_fd_sc_hd__mux2_1
*I *309:A2 I *D sky130_fd_sc_hd__a21bo_1
*I *335:X O *D sky130_fd_sc_hd__clkbuf_1
*CAP
1 *321:A0 0
2 *309:A2 0
3 *335:X 0.000371957
4 *46:20 0.000268498
5 *46:12 0.000429005
6 *46:8 0.000532464
7 *46:8 *63:8 0
8 *46:8 *66:8 3.5664e-05
9 *46:20 *47:10 3.22879e-05
10 *46:20 *63:8 0
11 *46:20 *66:8 2.70366e-05
12 *46:20 *66:19 9.64022e-05
13 *46:20 *66:125 0.000153155
14 *321:S *46:12 3.3577e-05
15 *326:A2 *46:20 1.24376e-05
16 *40:99 *46:20 0
*RES
1 *335:X *46:8 45.1879 
2 *46:8 *46:12 17.5271 
3 *46:12 *46:20 36.3179 
4 *46:20 *309:A2 23 
5 *46:12 *321:A0 23 
*END

*D_NET *47 0.00178142
*CONN
*I *345:A I *D sky130_fd_sc_hd__buf_2
*I *309:X O *D sky130_fd_sc_hd__a21bo_1
*CAP
1 *345:A 4.24511e-05
2 *309:X 0.000414447
3 *47:10 0.000456898
4 *47:10 *63:8 0.000682012
5 *321:S *47:10 0.000141879
6 *40:99 *47:10 1.14452e-05
7 *46:20 *47:10 3.22879e-05
*RES
1 *309:X *47:10 48.9786 
2 *47:10 *345:A 38.6214 
*END

*D_NET *48 0.00061421
*CONN
*I *346:A I *D sky130_fd_sc_hd__buf_2
*I *322:X O *D sky130_fd_sc_hd__mux2_1
*CAP
1 *346:A 0.000196301
2 *322:X 0.000110804
3 *48:8 0.000307105
4 ImmExt[10] *48:8 0
*RES
1 *322:X *48:8 39.9057 
2 *48:8 *346:A 41.48 
*END

*D_NET *49 0.00123981
*CONN
*I *347:A I *D sky130_fd_sc_hd__buf_2
*I *323:X O *D sky130_fd_sc_hd__mux2_1
*CAP
1 *347:A 0.000161377
2 *323:X 0.000288687
3 *49:10 0.000450064
4 *49:10 *50:8 0.000141888
5 *49:10 *69:10 7.66085e-05
6 *49:10 *69:26 8.4047e-05
7 ImmExt[12] *347:A 3.71369e-05
*RES
1 *323:X *49:10 43.8207 
2 *49:10 *347:A 41.0243 
*END

*D_NET *50 0.000336034
*CONN
*I *348:A I *D sky130_fd_sc_hd__buf_2
*I *324:X O *D sky130_fd_sc_hd__mux2_1
*CAP
1 *348:A 0
2 *324:X 9.70732e-05
3 *50:8 9.70732e-05
4 *339:A *50:8 0
5 *49:10 *50:8 0.000141888
*RES
1 *324:X *50:8 40.2579 
2 *50:8 *348:A 38 
*END

*D_NET *51 0.00144292
*CONN
*I *349:A I *D sky130_fd_sc_hd__buf_2
*I *326:X O *D sky130_fd_sc_hd__a21o_1
*CAP
1 *349:A 4.27777e-05
2 *326:X 0.000565985
3 *51:10 0.000608762
4 *51:10 *70:27 5.79559e-05
5 *331:A *51:10 0.000167443
*RES
1 *326:X *51:10 48.9786 
2 *51:10 *349:A 38.6214 
*END

*D_NET *52 0.00185491
*CONN
*I *350:A I *D sky130_fd_sc_hd__buf_2
*I *328:X O *D sky130_fd_sc_hd__a21o_1
*CAP
1 *350:A 0
2 *328:X 0.000692209
3 *52:10 0.000692209
4 *52:10 *55:8 0.00047049
*RES
1 *328:X *52:10 49.455 
2 *52:10 *350:A 38 
*END

*D_NET *53 0.000198429
*CONN
*I *351:A I *D sky130_fd_sc_hd__buf_2
*I *329:X O *D sky130_fd_sc_hd__clkbuf_1
*CAP
1 *351:A 9.92145e-05
2 *329:X 9.92145e-05
*RES
1 *329:X *351:A 47.9471 
*END

*D_NET *54 0.00773627
*CONN
*I *308:A I *D sky130_fd_sc_hd__or3b_1
*I *310:A I *D sky130_fd_sc_hd__or3b_1
*I *317:B I *D sky130_fd_sc_hd__nand2b_4
*I *327:C I *D sky130_fd_sc_hd__and3b_1
*I *312:A I *D sky130_fd_sc_hd__nor3b_1
*I *325:C I *D sky130_fd_sc_hd__and3b_1
*I *336:X O *D sky130_fd_sc_hd__clkbuf_2
*CAP
1 *308:A 0
2 *310:A 8.44036e-05
3 *317:B 0
4 *327:C 0
5 *312:A 0.000232732
6 *325:C 0
7 *336:X 0.000876785
8 *54:81 0.000516018
9 *54:59 0.000252989
10 *54:46 0.000504873
11 *54:25 0.000976686
12 *54:21 0.00105188
13 *54:14 0.000135436
14 *54:6 0.00114041
15 *310:A *66:107 0.000173452
16 *310:A *67:22 0
17 *312:A *64:8 1.01436e-05
18 *312:A *66:107 0.000183013
19 *54:14 *70:42 0.000110184
20 *54:25 *70:42 2.60152e-05
21 *54:46 *311:A1 0.00014196
22 *54:46 *327:A_N 5.50049e-05
23 *54:46 *64:8 0.000110922
24 *54:46 *64:14 1.01436e-05
25 *54:46 *67:32 0.000233367
26 *54:46 *71:16 0.000105717
27 *54:59 *311:A1 4.34745e-05
28 *54:59 *67:83 0
29 *54:59 *71:29 0
30 *54:81 *67:14 0
31 *315:A1 *54:25 0.00041129
32 *344:A *312:A 1.59071e-05
33 *39:21 *54:25 0
34 *40:10 *310:A 0.000317553
35 *43:17 *54:14 1.59094e-05
*RES
1 *336:X *54:6 37.9143 
2 *54:6 *54:14 32.175 
3 *54:14 *325:C 23 
4 *54:6 *54:21 1.57429 
5 *54:21 *54:25 24.4768 
6 *54:25 *312:A 42.6711 
7 *54:25 *54:46 23.4204 
8 *54:46 *327:C 23 
9 *54:46 *54:59 32.8793 
10 *54:59 *317:B 23 
11 *54:59 *310:A 26.9771 
12 *54:21 *54:81 38.5964 
13 *54:81 *308:A 23 
*END

*D_NET *55 0.00157212
*CONN
*I *352:A I *D sky130_fd_sc_hd__buf_2
*I *311:X O *D sky130_fd_sc_hd__a21bo_1
*CAP
1 *352:A 0
2 *311:X 0.000414212
3 *55:8 0.000414212
4 *55:8 *65:18 0.000171111
5 *42:12 *55:8 0.000102093
6 *52:10 *55:8 0.00047049
*RES
1 *311:X *55:8 35.5529 
2 *55:8 *352:A 23 
*END

*D_NET *56 0.00171302
*CONN
*I *353:A I *D sky130_fd_sc_hd__buf_2
*I *313:X O *D sky130_fd_sc_hd__a21o_1
*CAP
1 *353:A 0
2 *313:X 0.000790496
3 *56:8 0.000790496
4 *56:8 *314:B1 7.40718e-05
5 *56:8 *69:26 5.79559e-05
*RES
1 *313:X *56:8 37.935 
2 *56:8 *353:A 23 
*END

*D_NET *57 0.00148626
*CONN
*I *354:A I *D sky130_fd_sc_hd__buf_2
*I *314:X O *D sky130_fd_sc_hd__a21o_1
*CAP
1 *354:A 0.000632325
2 *314:X 0.000110804
3 *57:8 0.000743129
4 *57:8 *67:58 0
*RES
1 *314:X *57:8 39.9057 
2 *57:8 *354:A 49.5793 
*END

*D_NET *58 0.00143496
*CONN
*I *355:A I *D sky130_fd_sc_hd__buf_2
*I *315:X O *D sky130_fd_sc_hd__a21o_1
*CAP
1 *355:A 0.000606679
2 *315:X 0.000110804
3 *58:8 0.000717482
4 *58:8 *70:42 0
*RES
1 *315:X *58:8 39.9057 
2 *58:8 *355:A 49.1029 
*END

*D_NET *59 0.00109277
*CONN
*I *356:A I *D sky130_fd_sc_hd__buf_2
*I *316:X O *D sky130_fd_sc_hd__a21o_1
*CAP
1 *356:A 0
2 *316:X 0.000546386
3 *59:6 0.000546386
*RES
1 *316:X *59:6 33.15 
2 *59:6 *356:A 23 
*END

*D_NET *60 0.00151194
*CONN
*I *357:A I *D sky130_fd_sc_hd__buf_2
*I *318:X O *D sky130_fd_sc_hd__mux2_1
*CAP
1 *357:A 0
2 *318:X 0.000550618
3 *60:10 0.000550618
4 *60:10 *318:A1 5.50049e-05
5 *60:10 *61:10 0
6 *60:10 *66:31 0
7 *40:47 *60:10 0.000355699
*RES
1 *318:X *60:10 49.3307 
2 *60:10 *357:A 38 
*END

*D_NET *61 0.000683039
*CONN
*I *358:A I *D sky130_fd_sc_hd__buf_2
*I *319:X O *D sky130_fd_sc_hd__mux2_1
*CAP
1 *358:A 0
2 *319:X 0.000314017
3 *61:10 0.000314017
4 *61:10 *62:8 0
5 *61:10 *66:33 5.50049e-05
6 *60:10 *61:10 0
*RES
1 *319:X *61:10 43.6964 
2 *61:10 *358:A 38 
*END

*D_NET *62 0.000529531
*CONN
*I *359:A I *D sky130_fd_sc_hd__buf_2
*I *320:X O *D sky130_fd_sc_hd__mux2_1
*CAP
1 *359:A 0
2 *320:X 0.000264766
3 *62:8 0.000264766
4 *61:10 *62:8 0
*RES
1 *320:X *62:8 43.075 
2 *62:8 *359:A 38 
*END

*D_NET *63 0.00146254
*CONN
*I *360:A I *D sky130_fd_sc_hd__buf_2
*I *321:X O *D sky130_fd_sc_hd__mux2_1
*CAP
1 *360:A 5.84486e-05
2 *321:X 0.000320301
3 *63:8 0.00037875
4 *63:8 *66:8 0
5 ImmExt[9] *360:A 2.30292e-05
6 *46:8 *63:8 0
7 *46:20 *63:8 0
8 *47:10 *63:8 0.000682012
*RES
1 *321:X *63:8 46.9486 
2 *63:8 *360:A 39.0979 
*END

*D_NET *64 0.00273922
*CONN
*I *316:B1 I *D sky130_fd_sc_hd__a21o_1
*I *314:B1 I *D sky130_fd_sc_hd__a21o_1
*I *313:B1 I *D sky130_fd_sc_hd__a21o_1
*I *344:X O *D sky130_fd_sc_hd__buf_1
*CAP
1 *316:B1 0.000203804
2 *314:B1 0.000118862
3 *313:B1 0
4 *344:X 6.76534e-05
5 *64:14 0.000406888
6 *64:8 0.000559483
7 *314:B1 *314:A1 0.000190627
8 *314:B1 *69:26 0.000100061
9 *316:B1 *316:A1 9.8203e-05
10 *316:B1 *67:32 4.08664e-05
11 *316:B1 *67:34 0.000219836
12 *316:B1 *71:16 6.87669e-05
13 *64:8 *67:58 2.46345e-05
14 *64:14 *313:A1 2.18409e-05
15 *64:14 *67:58 0.000408129
16 *64:14 *69:26 4.2812e-06
17 *312:A *64:8 1.01436e-05
18 *54:46 *64:8 0.000110922
19 *54:46 *64:14 1.01436e-05
20 *56:8 *314:B1 7.40718e-05
*RES
1 *344:X *64:8 39.5536 
2 *64:8 *64:14 21.7529 
3 *64:14 *313:B1 23 
4 *64:14 *314:B1 26.9979 
5 *64:8 *316:B1 43.4064 
*END

*D_NET *65 0.00292619
*CONN
*I *322:A0 I *D sky130_fd_sc_hd__mux2_1
*I *311:A2 I *D sky130_fd_sc_hd__a21bo_1
*I *337:X O *D sky130_fd_sc_hd__clkbuf_1
*CAP
1 *322:A0 0
2 *311:A2 0
3 *337:X 0.000373034
4 *65:18 0.000774316
5 *65:8 0.00114735
6 *322:S *65:18 8.51432e-05
7 *40:37 *65:18 9.74132e-05
8 *42:12 *65:18 0.000277826
9 *55:8 *65:18 0.000171111
*RES
1 *337:X *65:8 29.3593 
2 *65:8 *65:18 44.0443 
3 *65:18 *311:A2 23 
4 *65:8 *322:A0 23 
*END

*D_NET *66 0.0132732
*CONN
*I *326:A1 I *D sky130_fd_sc_hd__a21o_1
*I *322:A1 I *D sky130_fd_sc_hd__mux2_1
*I *312:C_N I *D sky130_fd_sc_hd__nor3b_1
*I *328:A1 I *D sky130_fd_sc_hd__a21o_1
*I *318:A1 I *D sky130_fd_sc_hd__mux2_1
*I *319:A1 I *D sky130_fd_sc_hd__mux2_1
*I *320:A1 I *D sky130_fd_sc_hd__mux2_1
*I *324:A1 I *D sky130_fd_sc_hd__mux2_1
*I *323:A1 I *D sky130_fd_sc_hd__mux2_1
*I *321:A1 I *D sky130_fd_sc_hd__mux2_1
*I *330:X O *D sky130_fd_sc_hd__buf_2
*CAP
1 *326:A1 0
2 *322:A1 0.000305999
3 *312:C_N 0
4 *328:A1 0
5 *318:A1 0.000271818
6 *319:A1 0.000114522
7 *320:A1 0
8 *324:A1 0
9 *323:A1 4.87812e-05
10 *321:A1 4.26278e-05
11 *330:X 9.9576e-05
12 *66:125 0.000565593
13 *66:107 0.000854798
14 *66:95 0.0011332
15 *66:50 0.000169631
16 *66:35 0.000615293
17 *66:33 0.000498188
18 *66:31 0.0005528
19 *66:27 0.00110202
20 *66:25 0.000594038
21 *66:23 0.000551286
22 *66:21 0.00089187
23 *66:19 0.00113778
24 *66:8 0.000300604
25 *323:A1 *323:A0 0.000143286
26 *66:27 *73:10 0
27 *66:35 *323:A0 8.17328e-05
28 *66:50 *69:10 1.74874e-06
29 *66:50 *69:26 0
30 *66:107 *311:A1 8.1796e-05
31 *66:107 *67:16 2.07355e-05
32 *66:107 *67:22 6.66542e-05
33 *66:107 *67:32 9.84851e-05
34 *66:107 *71:29 0
35 *66:125 *308:C_N 0.000143655
36 *66:125 *309:A1 5.41385e-05
37 *66:125 *70:27 1.65191e-05
38 *309:B1_N *66:125 5.67058e-05
39 *310:A *66:107 0.000173452
40 *312:A *66:107 0.000183013
41 *319:A0 *319:A1 5.67058e-05
42 *322:S *66:23 0
43 *323:S *323:A1 2.93335e-05
44 *323:S *66:35 2.64616e-05
45 *326:A2 *66:125 0.000181321
46 *328:A2 *66:23 0.00010803
47 *328:A2 *66:25 0.000124102
48 *328:A2 *66:27 1.14452e-05
49 *344:A *66:107 6.23756e-05
50 *38:10 *66:107 0.000139582
51 *40:10 *66:107 4.75087e-05
52 *40:18 *66:23 0.000111852
53 *40:33 *66:95 1.05235e-05
54 *40:37 *66:23 0
55 *40:37 *66:25 0
56 *40:37 *66:27 0
57 *40:47 *318:A1 7.88926e-05
58 *40:47 *66:27 0
59 *40:47 *66:31 0
60 *40:51 *66:35 0.000407274
61 *40:66 *66:50 0.000112074
62 *40:99 *66:19 0
63 *40:99 *66:21 0
64 *40:99 *66:23 0
65 *45:8 *319:A1 4.19743e-05
66 *45:8 *66:33 0.000272377
67 *45:8 *66:35 5.67058e-05
68 *46:8 *66:8 3.5664e-05
69 *46:20 *66:8 2.70366e-05
70 *46:20 *66:19 9.64022e-05
71 *46:20 *66:125 0.000153155
72 *60:10 *318:A1 5.50049e-05
73 *60:10 *66:31 0
74 *61:10 *66:33 5.50049e-05
75 *63:8 *66:8 0
*RES
1 *330:X *66:8 40.2579 
2 *66:8 *321:A1 38.6214 
3 *66:8 *66:19 3.31429 
4 *66:19 *66:21 7.89214 
5 *66:21 *66:23 4.01857 
6 *66:23 *66:25 1.90571 
7 *66:25 *66:27 9.30071 
8 *66:27 *66:31 20.7793 
9 *66:31 *66:33 3.00357 
10 *66:33 *66:35 9.19714 
11 *66:35 *323:A1 24.5743 
12 *66:35 *66:50 32.6514 
13 *66:50 *324:A1 23 
14 *66:33 *320:A1 23 
15 *66:31 *319:A1 25.0714 
16 *66:27 *318:A1 42.9093 
17 *66:25 *328:A1 38 
18 *66:23 *66:95 48.7286 
19 *66:95 *66:107 46.6336 
20 *66:107 *312:C_N 23 
21 *66:21 *322:A1 43.3857 
22 *66:19 *66:125 27.0557 
23 *66:125 *326:A1 23 
*END

*D_NET *67 0.00880287
*CONN
*I *308:B I *D sky130_fd_sc_hd__or3b_1
*I *309:A1 I *D sky130_fd_sc_hd__a21bo_1