* NGSPICE file created from Instruction_Memory_16.ext - technology: sky130A

* Black-box entry subcircuit for sky130_fd_sc_hd__decap_8 abstract view
.subckt sky130_fd_sc_hd__decap_8 VGND VNB VPB VPWR
.ends

* Black-box entry subcircuit for sky130_ef_sc_hd__decap_12 abstract view
.subckt sky130_ef_sc_hd__decap_12 VPWR VGND VPB VNB
.ends

* Black-box entry subcircuit for sky130_fd_sc_hd__tapvpwrvgnd_1 abstract view
.subckt sky130_fd_sc_hd__tapvpwrvgnd_1 VGND VPWR
.ends

* Black-box entry subcircuit for sky130_fd_sc_hd__fill_1 abstract view
.subckt sky130_fd_sc_hd__fill_1 VGND VNB VPB VPWR
.ends

* Black-box entry subcircuit for sky130_fd_sc_hd__fill_2 abstract view
.subckt sky130_fd_sc_hd__fill_2 VGND VNB VPB VPWR
.ends

* Black-box entry subcircuit for sky130_fd_sc_hd__decap_4 abstract view
.subckt sky130_fd_sc_hd__decap_4 VGND VNB VPB VPWR
.ends

* Black-box entry subcircuit for sky130_fd_sc_hd__decap_6 abstract view
.subckt sky130_fd_sc_hd__decap_6 VGND VNB VPB VPWR
.ends

* Black-box entry subcircuit for sky130_fd_sc_hd__clkbuf_1 abstract view
.subckt sky130_fd_sc_hd__clkbuf_1 A VGND VNB VPB VPWR X
.ends

* Black-box entry subcircuit for sky130_fd_sc_hd__or4_1 abstract view
.subckt sky130_fd_sc_hd__or4_1 A B C D VGND VNB VPB VPWR X
.ends

* Black-box entry subcircuit for sky130_fd_sc_hd__or3b_1 abstract view
.subckt sky130_fd_sc_hd__or3b_1 A B C_N VGND VNB VPB VPWR X
.ends

* Black-box entry subcircuit for sky130_fd_sc_hd__decap_3 abstract view
.subckt sky130_fd_sc_hd__decap_3 VGND VNB VPB VPWR
.ends

* Black-box entry subcircuit for sky130_fd_sc_hd__buf_2 abstract view
.subckt sky130_fd_sc_hd__buf_2 A VGND VNB VPB VPWR X
.ends

* Black-box entry subcircuit for sky130_fd_sc_hd__inv_2 abstract view
.subckt sky130_fd_sc_hd__inv_2 A VGND VNB VPB VPWR Y
.ends

* Black-box entry subcircuit for sky130_fd_sc_hd__a21oi_1 abstract view
.subckt sky130_fd_sc_hd__a21oi_1 A1 A2 B1 VGND VNB VPB VPWR Y
.ends

* Black-box entry subcircuit for sky130_fd_sc_hd__a211o_1 abstract view
.subckt sky130_fd_sc_hd__a211o_1 A1 A2 B1 C1 VGND VNB VPB VPWR X
.ends

* Black-box entry subcircuit for sky130_fd_sc_hd__o21a_1 abstract view
.subckt sky130_fd_sc_hd__o21a_1 A1 A2 B1 VGND VNB VPB VPWR X
.ends

* Black-box entry subcircuit for sky130_fd_sc_hd__clkbuf_8 abstract view
.subckt sky130_fd_sc_hd__clkbuf_8 A VGND VNB VPB VPWR X
.ends

* Black-box entry subcircuit for sky130_fd_sc_hd__clkbuf_16 abstract view
.subckt sky130_fd_sc_hd__clkbuf_16 A VGND VNB VPB VPWR X
.ends

* Black-box entry subcircuit for sky130_fd_sc_hd__or3_1 abstract view
.subckt sky130_fd_sc_hd__or3_1 A B C VGND VNB VPB VPWR X
.ends

* Black-box entry subcircuit for sky130_fd_sc_hd__o21bai_1 abstract view
.subckt sky130_fd_sc_hd__o21bai_1 A1 A2 B1_N VGND VNB VPB VPWR Y
.ends

* Black-box entry subcircuit for sky130_fd_sc_hd__o31a_1 abstract view
.subckt sky130_fd_sc_hd__o31a_1 A1 A2 A3 B1 VGND VNB VPB VPWR X
.ends

* Black-box entry subcircuit for sky130_fd_sc_hd__and4bb_1 abstract view
.subckt sky130_fd_sc_hd__and4bb_1 A_N B_N C D VGND VNB VPB VPWR X
.ends

* Black-box entry subcircuit for sky130_fd_sc_hd__dfxtp_1 abstract view
.subckt sky130_fd_sc_hd__dfxtp_1 CLK D VGND VNB VPB VPWR Q
.ends

* Black-box entry subcircuit for sky130_fd_sc_hd__and3_1 abstract view
.subckt sky130_fd_sc_hd__and3_1 A B C VGND VNB VPB VPWR X
.ends

* Black-box entry subcircuit for sky130_fd_sc_hd__nor2_1 abstract view
.subckt sky130_fd_sc_hd__nor2_1 A B VGND VNB VPB VPWR Y
.ends

* Black-box entry subcircuit for sky130_fd_sc_hd__buf_1 abstract view
.subckt sky130_fd_sc_hd__buf_1 A VGND VNB VPB VPWR X
.ends

* Black-box entry subcircuit for sky130_fd_sc_hd__nand2b_2 abstract view
.subckt sky130_fd_sc_hd__nand2b_2 A_N B VGND VNB VPB VPWR Y
.ends

* Black-box entry subcircuit for sky130_fd_sc_hd__clkbuf_4 abstract view
.subckt sky130_fd_sc_hd__clkbuf_4 A VGND VNB VPB VPWR X
.ends

* Black-box entry subcircuit for sky130_fd_sc_hd__or2_1 abstract view
.subckt sky130_fd_sc_hd__or2_1 A B VGND VNB VPB VPWR X
.ends

* Black-box entry subcircuit for sky130_fd_sc_hd__o221a_1 abstract view
.subckt sky130_fd_sc_hd__o221a_1 A1 A2 B1 B2 C1 VGND VNB VPB VPWR X
.ends

* Black-box entry subcircuit for sky130_fd_sc_hd__nand2b_1 abstract view
.subckt sky130_fd_sc_hd__nand2b_1 A_N B VGND VNB VPB VPWR Y
.ends

* Black-box entry subcircuit for sky130_fd_sc_hd__dlymetal6s2s_1 abstract view
.subckt sky130_fd_sc_hd__dlymetal6s2s_1 A VGND VNB VPB VPWR X
.ends

* Black-box entry subcircuit for sky130_fd_sc_hd__clkbuf_2 abstract view
.subckt sky130_fd_sc_hd__clkbuf_2 A VGND VNB VPB VPWR X
.ends

* Black-box entry subcircuit for sky130_fd_sc_hd__o211a_1 abstract view
.subckt sky130_fd_sc_hd__o211a_1 A1 A2 B1 C1 VGND VNB VPB VPWR X
.ends

* Black-box entry subcircuit for sky130_fd_sc_hd__a311o_1 abstract view
.subckt sky130_fd_sc_hd__a311o_1 A1 A2 A3 B1 C1 VGND VNB VPB VPWR X
.ends

* Black-box entry subcircuit for sky130_fd_sc_hd__xnor2_4 abstract view
.subckt sky130_fd_sc_hd__xnor2_4 A B VGND VNB VPB VPWR Y
.ends

* Black-box entry subcircuit for sky130_fd_sc_hd__nand2_1 abstract view
.subckt sky130_fd_sc_hd__nand2_1 A B VGND VNB VPB VPWR Y
.ends

* Black-box entry subcircuit for sky130_fd_sc_hd__and2_1 abstract view
.subckt sky130_fd_sc_hd__and2_1 A B VGND VNB VPB VPWR X
.ends

* Black-box entry subcircuit for sky130_fd_sc_hd__or4_4 abstract view
.subckt sky130_fd_sc_hd__or4_4 A B C D VGND VNB VPB VPWR X
.ends

* Black-box entry subcircuit for sky130_fd_sc_hd__and2b_1 abstract view
.subckt sky130_fd_sc_hd__and2b_1 A_N B VGND VNB VPB VPWR X
.ends

* Black-box entry subcircuit for sky130_fd_sc_hd__nor4_1 abstract view
.subckt sky130_fd_sc_hd__nor4_1 A B C D VGND VNB VPB VPWR Y
.ends

* Black-box entry subcircuit for sky130_fd_sc_hd__a21o_1 abstract view
.subckt sky130_fd_sc_hd__a21o_1 A1 A2 B1 VGND VNB VPB VPWR X
.ends

.subckt Instruction_Memory_16 VGND VPWR clk instruction[0] instruction[10] instruction[11]
+ instruction[12] instruction[13] instruction[14] instruction[15] instruction[1] instruction[2]
+ instruction[3] instruction[4] instruction[5] instruction[6] instruction[7] instruction[8]
+ instruction[9] pc[0] pc[10] pc[11] pc[12] pc[13] pc[14] pc[15] pc[1] pc[2] pc[3]
+ pc[4] pc[5] pc[6] pc[7] pc[8] pc[9]
XFILLER_36_19 VGND VGND VPWR VPWR sky130_fd_sc_hd__decap_8
XFILLER_22_177 VPWR VGND VPWR VGND sky130_ef_sc_hd__decap_12
XTAP_TAPCELL_ROW_9_137 VGND VPWR sky130_fd_sc_hd__tapvpwrvgnd_1
XFILLER_45_225 VPWR VGND VPWR VGND sky130_ef_sc_hd__decap_12
XFILLER_13_111 VGND VGND VPWR VPWR sky130_fd_sc_hd__fill_1
XFILLER_26_85 VGND VGND VPWR VPWR sky130_fd_sc_hd__fill_1
XFILLER_9_137 VPWR VGND VPWR VGND sky130_ef_sc_hd__decap_12
XTAP_TAPCELL_ROW_14_161 VGND VPWR sky130_fd_sc_hd__tapvpwrvgnd_1
XFILLER_27_225 VPWR VGND VPWR VGND sky130_ef_sc_hd__decap_12
XFILLER_27_269 VGND VGND VPWR VPWR sky130_fd_sc_hd__fill_2
XTAP_TAPCELL_ROW_37_264 VGND VPWR sky130_fd_sc_hd__tapvpwrvgnd_1
XFILLER_12_65 VPWR VGND VPWR VGND sky130_ef_sc_hd__decap_12
XTAP_TAPCELL_ROW_20_186 VGND VPWR sky130_fd_sc_hd__tapvpwrvgnd_1
XFILLER_37_51 VGND VGND VPWR VPWR sky130_fd_sc_hd__decap_4
XFILLER_41_261 VGND VGND VPWR VPWR sky130_fd_sc_hd__decap_8
XFILLER_33_217 VGND VGND VPWR VPWR sky130_fd_sc_hd__decap_6
XFILLER_15_217 VGND VGND VPWR VPWR sky130_fd_sc_hd__decap_6
XFILLER_23_261 VGND VGND VPWR VPWR sky130_fd_sc_hd__decap_8
XTAP_TAPCELL_ROW_25_212 VGND VPWR sky130_fd_sc_hd__tapvpwrvgnd_1
XFILLER_30_209 VPWR VGND VPWR VGND sky130_ef_sc_hd__decap_12
X_131_ net22 VGND VGND VPWR VPWR net29 sky130_fd_sc_hd__clkbuf_1
XFILLER_23_97 VGND VGND VPWR VPWR sky130_fd_sc_hd__fill_2
X_062_ net4 net3 net6 net5 VGND VGND VPWR VPWR _018_ sky130_fd_sc_hd__or4_1
XFILLER_2_165 VPWR VGND VPWR VGND sky130_ef_sc_hd__decap_12
XFILLER_2_121 VPWR VGND VPWR VGND sky130_ef_sc_hd__decap_12
XFILLER_0_57 VPWR VGND VPWR VGND sky130_ef_sc_hd__decap_12
XFILLER_9_55 VGND VGND VPWR VPWR sky130_fd_sc_hd__fill_1
XTAP_TAPCELL_ROW_31_237 VGND VPWR sky130_fd_sc_hd__tapvpwrvgnd_1
XFILLER_12_209 VPWR VGND VPWR VGND sky130_ef_sc_hd__decap_12
XFILLER_20_253 VPWR VGND VPWR VGND sky130_ef_sc_hd__decap_12
XTAP_TAPCELL_ROW_45_307 VGND VPWR sky130_fd_sc_hd__tapvpwrvgnd_1
XFILLER_34_41 VPWR VGND VPWR VGND sky130_ef_sc_hd__decap_12
XFILLER_34_85 VPWR VGND VPWR VGND sky130_ef_sc_hd__decap_12
X_114_ _030_ _040_ _024_ VGND VGND VPWR VPWR _057_ sky130_fd_sc_hd__or3b_1
XFILLER_22_7 VPWR VGND VPWR VGND sky130_ef_sc_hd__decap_12
XFILLER_38_139 VGND VGND VPWR VPWR sky130_fd_sc_hd__fill_1
XPHY_EDGE_ROW_28_Left_74 VGND VGND VPWR VPWR sky130_fd_sc_hd__decap_3
XPHY_EDGE_ROW_12_Left_58 VGND VGND VPWR VPWR sky130_fd_sc_hd__decap_3
XFILLER_44_109 VPWR VGND VPWR VGND sky130_ef_sc_hd__decap_12
XFILLER_37_161 VGND VGND VPWR VPWR sky130_fd_sc_hd__decap_6
XFILLER_20_21 VGND VGND VPWR VPWR sky130_fd_sc_hd__decap_6
XFILLER_29_30 VPWR VGND VPWR VGND sky130_ef_sc_hd__decap_12
XFILLER_13_3 VPWR VGND VPWR VGND sky130_ef_sc_hd__decap_12
XFILLER_26_109 VPWR VGND VPWR VGND sky130_ef_sc_hd__decap_12
XFILLER_34_153 VPWR VGND VPWR VGND sky130_ef_sc_hd__decap_12
XFILLER_34_197 VPWR VGND VPWR VGND sky130_ef_sc_hd__decap_12
XFILLER_25_131 VPWR VGND VPWR VGND sky130_ef_sc_hd__decap_12
XFILLER_15_43 VPWR VGND VPWR VGND sky130_ef_sc_hd__decap_12
XFILLER_31_42 VPWR VGND VPWR VGND sky130_ef_sc_hd__decap_12
XFILLER_40_189 VGND VGND VPWR VPWR sky130_fd_sc_hd__decap_6
Xoutput31 net31 VGND VGND VPWR VPWR instruction[9] sky130_fd_sc_hd__buf_2
Xoutput20 net20 VGND VGND VPWR VPWR instruction[13] sky130_fd_sc_hd__buf_2
XFILLER_16_153 VGND VGND VPWR VPWR sky130_fd_sc_hd__fill_1
XFILLER_16_197 VPWR VGND VPWR VGND sky130_ef_sc_hd__decap_12
XFILLER_31_167 VGND VGND VPWR VPWR sky130_fd_sc_hd__fill_1
XFILLER_39_223 VGND VGND VPWR VPWR sky130_fd_sc_hd__fill_1
XFILLER_22_189 VGND VGND VPWR VPWR sky130_fd_sc_hd__decap_6
XTAP_TAPCELL_ROW_9_138 VGND VPWR sky130_fd_sc_hd__tapvpwrvgnd_1
XPHY_EDGE_ROW_15_Left_61 VGND VGND VPWR VPWR sky130_fd_sc_hd__decap_3
XFILLER_45_237 VPWR VGND VPWR VGND sky130_ef_sc_hd__decap_12
XFILLER_9_105 VGND VGND VPWR VPWR sky130_fd_sc_hd__decap_6
XFILLER_13_167 VGND VGND VPWR VPWR sky130_fd_sc_hd__fill_1
XFILLER_26_42 VGND VGND VPWR VPWR sky130_fd_sc_hd__fill_1
XFILLER_26_97 VPWR VGND VPWR VGND sky130_ef_sc_hd__decap_12
XFILLER_42_85 VPWR VGND VPWR VGND sky130_ef_sc_hd__decap_12
XFILLER_42_41 VPWR VGND VPWR VGND sky130_ef_sc_hd__decap_12
XFILLER_9_149 VPWR VGND VPWR VGND sky130_ef_sc_hd__decap_12
XFILLER_3_57 VPWR VGND VPWR VGND sky130_ef_sc_hd__decap_12
XTAP_TAPCELL_ROW_14_162 VGND VPWR sky130_fd_sc_hd__tapvpwrvgnd_1
XFILLER_27_237 VPWR VGND VPWR VGND sky130_ef_sc_hd__decap_12
XTAP_TAPCELL_ROW_37_265 VGND VPWR sky130_fd_sc_hd__tapvpwrvgnd_1
XFILLER_12_77 VGND VGND VPWR VPWR sky130_fd_sc_hd__decap_6
XTAP_TAPCELL_ROW_20_187 VGND VPWR sky130_fd_sc_hd__tapvpwrvgnd_1
XPHY_EDGE_ROW_0_Left_46 VGND VGND VPWR VPWR sky130_fd_sc_hd__decap_3
XFILLER_32_251 VGND VGND VPWR VPWR sky130_fd_sc_hd__fill_1
XPHY_EDGE_ROW_42_Left_88 VGND VGND VPWR VPWR sky130_fd_sc_hd__decap_3
XPHY_EDGE_ROW_12_Right_12 VGND VGND VPWR VPWR sky130_fd_sc_hd__decap_3
XPHY_EDGE_ROW_21_Right_21 VGND VGND VPWR VPWR sky130_fd_sc_hd__decap_3
X_130_ net31 VGND VGND VPWR VPWR net27 sky130_fd_sc_hd__clkbuf_1
X_061_ net11 VGND VGND VPWR VPWR _017_ sky130_fd_sc_hd__inv_2
XPHY_EDGE_ROW_30_Right_30 VGND VGND VPWR VPWR sky130_fd_sc_hd__decap_3
XFILLER_2_177 VPWR VGND VPWR VGND sky130_ef_sc_hd__decap_12
XFILLER_2_133 VGND VGND VPWR VPWR sky130_fd_sc_hd__decap_6
XFILLER_0_69 VPWR VGND VPWR VGND sky130_ef_sc_hd__decap_12
XFILLER_14_251 VGND VGND VPWR VPWR sky130_fd_sc_hd__fill_1
XTAP_TAPCELL_ROW_31_238 VGND VPWR sky130_fd_sc_hd__tapvpwrvgnd_1
XFILLER_43_3 VPWR VGND VPWR VGND sky130_ef_sc_hd__decap_12
XFILLER_20_221 VPWR VGND VPWR VGND sky130_ef_sc_hd__decap_12
XFILLER_20_265 VGND VGND VPWR VPWR sky130_fd_sc_hd__decap_6
XFILLER_18_76 VGND VGND VPWR VPWR sky130_fd_sc_hd__decap_8
XFILLER_7_225 VPWR VGND VPWR VGND sky130_ef_sc_hd__decap_12
X_113_ _029_ _056_ _021_ VGND VGND VPWR VPWR _012_ sky130_fd_sc_hd__a21oi_1
XFILLER_34_53 VPWR VGND VPWR VGND sky130_ef_sc_hd__decap_12
XFILLER_34_97 VPWR VGND VPWR VGND sky130_ef_sc_hd__decap_12
XFILLER_7_269 VGND VGND VPWR VPWR sky130_fd_sc_hd__fill_2
XFILLER_15_7 VPWR VGND VPWR VGND sky130_ef_sc_hd__decap_12
XPHY_EDGE_ROW_45_Left_91 VGND VGND VPWR VPWR sky130_fd_sc_hd__decap_3
XFILLER_29_42 VGND VGND VPWR VPWR sky130_fd_sc_hd__decap_3
XFILLER_29_75 VPWR VGND VPWR VGND sky130_ef_sc_hd__decap_12
XFILLER_45_85 VPWR VGND VPWR VGND sky130_ef_sc_hd__decap_12
XFILLER_45_41 VPWR VGND VPWR VGND sky130_ef_sc_hd__decap_12
XFILLER_3_261 VGND VGND VPWR VPWR sky130_fd_sc_hd__decap_8
XFILLER_34_121 VPWR VGND VPWR VGND sky130_ef_sc_hd__decap_12
XFILLER_34_165 VPWR VGND VPWR VGND sky130_ef_sc_hd__decap_12
XPHY_EDGE_ROW_6_Right_6 VGND VGND VPWR VPWR sky130_fd_sc_hd__decap_3
XFILLER_15_55 VGND VGND VPWR VPWR sky130_fd_sc_hd__fill_1
XFILLER_25_143 VPWR VGND VPWR VGND sky130_ef_sc_hd__decap_12
XFILLER_31_54 VGND VGND VPWR VPWR sky130_fd_sc_hd__fill_2
XFILLER_0_253 VPWR VGND VPWR VGND sky130_ef_sc_hd__decap_12
Xoutput21 net21 VGND VGND VPWR VPWR instruction[14] sky130_fd_sc_hd__buf_2
XFILLER_16_121 VPWR VGND VPWR VGND sky130_ef_sc_hd__decap_12
XFILLER_31_113 VPWR VGND VPWR VGND sky130_ef_sc_hd__decap_12
XFILLER_22_102 VGND VGND VPWR VPWR sky130_fd_sc_hd__decap_4
XTAP_TAPCELL_ROW_9_139 VGND VPWR sky130_fd_sc_hd__tapvpwrvgnd_1
XFILLER_45_249 VGND VGND VPWR VPWR sky130_fd_sc_hd__decap_3
XFILLER_42_53 VPWR VGND VPWR VGND sky130_ef_sc_hd__decap_12
XFILLER_13_113 VPWR VGND VPWR VGND sky130_ef_sc_hd__decap_12
XFILLER_26_54 VPWR VGND VPWR VGND sky130_ef_sc_hd__decap_12
XFILLER_42_97 VPWR VGND VPWR VGND sky130_ef_sc_hd__decap_12
XFILLER_3_69 VPWR VGND VPWR VGND sky130_ef_sc_hd__decap_12
XTAP_TAPCELL_ROW_14_163 VGND VPWR sky130_fd_sc_hd__tapvpwrvgnd_1
XFILLER_27_205 VPWR VGND VPWR VGND sky130_ef_sc_hd__decap_12
XFILLER_27_249 VPWR VGND VPWR VGND sky130_ef_sc_hd__decap_12
XTAP_TAPCELL_ROW_37_266 VGND VPWR sky130_fd_sc_hd__tapvpwrvgnd_1
XFILLER_6_109 VPWR VGND VPWR VGND sky130_ef_sc_hd__decap_12
XTAP_TAPCELL_ROW_20_188 VGND VPWR sky130_fd_sc_hd__tapvpwrvgnd_1
XTAP_TAPCELL_ROW_5_120 VGND VPWR sky130_fd_sc_hd__tapvpwrvgnd_1
XTAP_TAPCELL_ROW_28_222 VGND VPWR sky130_fd_sc_hd__tapvpwrvgnd_1
XFILLER_3_3 VPWR VGND VPWR VGND sky130_ef_sc_hd__decap_12
X_060_ net33 VGND VGND VPWR VPWR _016_ sky130_fd_sc_hd__inv_2
XFILLER_2_189 VGND VGND VPWR VPWR sky130_fd_sc_hd__decap_6
XFILLER_0_15 VPWR VGND VPWR VGND sky130_ef_sc_hd__decap_12
XFILLER_9_57 VPWR VGND VPWR VGND sky130_ef_sc_hd__decap_12
XTAP_TAPCELL_ROW_31_239 VGND VPWR sky130_fd_sc_hd__tapvpwrvgnd_1
XFILLER_20_233 VPWR VGND VPWR VGND sky130_ef_sc_hd__decap_12
XFILLER_7_237 VPWR VGND VPWR VGND sky130_ef_sc_hd__decap_12
X_112_ _016_ _025_ _030_ _055_ VGND VGND VPWR VPWR _056_ sky130_fd_sc_hd__a211o_1
XFILLER_34_65 VPWR VGND VPWR VGND sky130_ef_sc_hd__decap_12
XFILLER_28_141 VGND VGND VPWR VPWR sky130_fd_sc_hd__decap_8
XFILLER_29_87 VPWR VGND VPWR VGND sky130_ef_sc_hd__decap_12
XFILLER_45_97 VGND VGND VPWR VPWR sky130_fd_sc_hd__decap_4
XFILLER_45_53 VGND VGND VPWR VPWR sky130_fd_sc_hd__decap_3
XFILLER_43_111 VGND VGND VPWR VPWR sky130_fd_sc_hd__fill_1
XFILLER_34_133 VGND VGND VPWR VPWR sky130_fd_sc_hd__decap_6
XFILLER_34_177 VPWR VGND VPWR VGND sky130_ef_sc_hd__decap_12
XFILLER_25_155 VPWR VGND VPWR VGND sky130_ef_sc_hd__decap_12
Xoutput22 net22 VGND VGND VPWR VPWR instruction[15] sky130_fd_sc_hd__buf_2
XFILLER_0_221 VGND VGND VPWR VPWR sky130_fd_sc_hd__decap_3
XFILLER_0_265 VGND VGND VPWR VPWR sky130_fd_sc_hd__decap_6
XFILLER_16_133 VGND VGND VPWR VPWR sky130_fd_sc_hd__decap_6
XFILLER_31_125 VPWR VGND VPWR VGND sky130_ef_sc_hd__decap_12
XFILLER_31_169 VPWR VGND VPWR VGND sky130_ef_sc_hd__decap_12
XFILLER_39_225 VPWR VGND VPWR VGND sky130_ef_sc_hd__decap_12
XFILLER_39_269 VGND VGND VPWR VPWR sky130_fd_sc_hd__fill_2
XFILLER_26_66 VPWR VGND VPWR VGND sky130_ef_sc_hd__decap_12
XFILLER_42_65 VPWR VGND VPWR VGND sky130_ef_sc_hd__decap_12
XFILLER_13_125 VPWR VGND VPWR VGND sky130_ef_sc_hd__decap_12
XFILLER_13_169 VPWR VGND VPWR VGND sky130_ef_sc_hd__decap_12
XFILLER_3_15 VPWR VGND VPWR VGND sky130_ef_sc_hd__decap_12
XFILLER_8_195 VGND VGND VPWR VPWR sky130_fd_sc_hd__fill_1
XFILLER_42_209 VPWR VGND VPWR VGND sky130_ef_sc_hd__decap_12
XFILLER_27_217 VGND VGND VPWR VPWR sky130_fd_sc_hd__decap_6
XFILLER_10_139 VGND VGND VPWR VPWR sky130_fd_sc_hd__fill_1
XFILLER_35_261 VGND VGND VPWR VPWR sky130_fd_sc_hd__decap_8
XTAP_TAPCELL_ROW_20_189 VGND VPWR sky130_fd_sc_hd__tapvpwrvgnd_1
XTAP_TAPCELL_ROW_5_121 VGND VPWR sky130_fd_sc_hd__tapvpwrvgnd_1
XTAP_TAPCELL_ROW_28_223 VGND VPWR sky130_fd_sc_hd__tapvpwrvgnd_1
XFILLER_24_209 VPWR VGND VPWR VGND sky130_ef_sc_hd__decap_12
XFILLER_17_261 VGND VGND VPWR VPWR sky130_fd_sc_hd__decap_8
XFILLER_32_253 VPWR VGND VPWR VGND sky130_ef_sc_hd__decap_12
XFILLER_23_89 VGND VGND VPWR VPWR sky130_fd_sc_hd__fill_1
XFILLER_0_27 VGND VGND VPWR VPWR sky130_fd_sc_hd__fill_1
XFILLER_9_69 VPWR VGND VPWR VGND sky130_ef_sc_hd__decap_12
XFILLER_14_253 VPWR VGND VPWR VGND sky130_ef_sc_hd__decap_12
XTAP_TAPCELL_ROW_0_92 VGND VPWR sky130_fd_sc_hd__tapvpwrvgnd_1
XFILLER_20_245 VGND VGND VPWR VPWR sky130_fd_sc_hd__decap_6
XFILLER_11_223 VGND VGND VPWR VPWR sky130_fd_sc_hd__fill_1
XFILLER_34_77 VGND VGND VPWR VPWR sky130_fd_sc_hd__decap_6
XFILLER_7_249 VPWR VGND VPWR VGND sky130_ef_sc_hd__decap_12
XFILLER_7_205 VPWR VGND VPWR VGND sky130_ef_sc_hd__decap_12
X_111_ net35 net8 net33 VGND VGND VPWR VPWR _055_ sky130_fd_sc_hd__o21a_1
XFILLER_38_109 VPWR VGND VPWR VGND sky130_ef_sc_hd__decap_12
XFILLER_1_81 VPWR VGND VPWR VGND sky130_ef_sc_hd__decap_12
XFILLER_20_35 VPWR VGND VPWR VGND sky130_ef_sc_hd__decap_12
XFILLER_28_197 VPWR VGND VPWR VGND sky130_ef_sc_hd__decap_12
XFILLER_29_99 VPWR VGND VPWR VGND sky130_ef_sc_hd__decap_12
XFILLER_43_167 VGND VGND VPWR VPWR sky130_fd_sc_hd__fill_1
XFILLER_6_15 VPWR VGND VPWR VGND sky130_ef_sc_hd__decap_12
XFILLER_19_164 VGND VGND VPWR VPWR sky130_fd_sc_hd__decap_4
XFILLER_34_189 VGND VGND VPWR VPWR sky130_fd_sc_hd__decap_6
XFILLER_15_57 VPWR VGND VPWR VGND sky130_ef_sc_hd__decap_12
XFILLER_25_167 VGND VGND VPWR VPWR sky130_fd_sc_hd__fill_1
Xoutput23 net23 VGND VGND VPWR VPWR instruction[1] sky130_fd_sc_hd__buf_2
XFILLER_31_137 VPWR VGND VPWR VGND sky130_ef_sc_hd__decap_12
XFILLER_11_3 VPWR VGND VPWR VGND sky130_ef_sc_hd__decap_12
XFILLER_39_237 VPWR VGND VPWR VGND sky130_ef_sc_hd__decap_12
XTAP_TAPCELL_ROW_17_173 VGND VPWR sky130_fd_sc_hd__tapvpwrvgnd_1
XFILLER_42_77 VGND VGND VPWR VPWR sky130_fd_sc_hd__decap_6
XFILLER_13_137 VPWR VGND VPWR VGND sky130_ef_sc_hd__decap_12
XFILLER_21_181 VPWR VGND VPWR VGND sky130_ef_sc_hd__decap_12
XFILLER_3_27 VPWR VGND VPWR VGND sky130_ef_sc_hd__decap_12
XFILLER_44_251 VGND VGND VPWR VPWR sky130_fd_sc_hd__fill_1
XFILLER_8_141 VPWR VGND VPWR VGND sky130_ef_sc_hd__decap_12
XPHY_EDGE_ROW_19_Left_65 VGND VGND VPWR VPWR sky130_fd_sc_hd__decap_3
XTAP_TAPCELL_ROW_5_122 VGND VPWR sky130_fd_sc_hd__tapvpwrvgnd_1
XFILLER_37_55 VGND VGND VPWR VPWR sky130_fd_sc_hd__fill_1
XFILLER_26_251 VGND VGND VPWR VPWR sky130_fd_sc_hd__fill_1
XTAP_TAPCELL_ROW_28_224 VGND VPWR sky130_fd_sc_hd__tapvpwrvgnd_1
XFILLER_5_111 VGND VGND VPWR VPWR sky130_fd_sc_hd__fill_1
XTAP_TAPCELL_ROW_11_146 VGND VPWR sky130_fd_sc_hd__tapvpwrvgnd_1
XFILLER_32_221 VPWR VGND VPWR VGND sky130_ef_sc_hd__decap_12
XFILLER_32_265 VGND VGND VPWR VPWR sky130_fd_sc_hd__decap_6
XTAP_TAPCELL_ROW_34_249 VGND VPWR sky130_fd_sc_hd__tapvpwrvgnd_1
XFILLER_9_15 VPWR VGND VPWR VGND sky130_ef_sc_hd__decap_12
XFILLER_14_221 VPWR VGND VPWR VGND sky130_ef_sc_hd__decap_12
XFILLER_14_265 VGND VGND VPWR VPWR sky130_fd_sc_hd__fill_2
XTAP_TAPCELL_ROW_0_93 VGND VPWR sky130_fd_sc_hd__tapvpwrvgnd_1
XFILLER_18_35 VGND VGND VPWR VPWR sky130_fd_sc_hd__decap_8
XFILLER_18_68 VGND VGND VPWR VPWR sky130_fd_sc_hd__decap_3
X_110_ _034_ _054_ _021_ VGND VGND VPWR VPWR _011_ sky130_fd_sc_hd__a21oi_1
XFILLER_7_217 VGND VGND VPWR VPWR sky130_fd_sc_hd__decap_6
Xclkload0 clknet_1_0__leaf_clk VGND VGND VPWR VPWR clkload0/X sky130_fd_sc_hd__clkbuf_8
XFILLER_41_3 VPWR VGND VPWR VGND sky130_ef_sc_hd__decap_12
XFILLER_1_93 VPWR VGND VPWR VGND sky130_ef_sc_hd__decap_12
XFILLER_4_209 VPWR VGND VPWR VGND sky130_ef_sc_hd__decap_12
XFILLER_20_47 VGND VGND VPWR VPWR sky130_fd_sc_hd__fill_1
XFILLER_20_58 VPWR VGND VPWR VGND sky130_ef_sc_hd__decap_12
XFILLER_43_113 VPWR VGND VPWR VGND sky130_ef_sc_hd__decap_12
XPHY_EDGE_ROW_7_Left_53 VGND VGND VPWR VPWR sky130_fd_sc_hd__decap_3
XFILLER_6_27 VGND VGND VPWR VPWR sky130_fd_sc_hd__fill_1
XFILLER_15_69 VPWR VGND VPWR VGND sky130_ef_sc_hd__decap_12
Xoutput24 net24 VGND VGND VPWR VPWR instruction[2] sky130_fd_sc_hd__buf_2
XFILLER_31_57 VPWR VGND VPWR VGND sky130_ef_sc_hd__decap_12
XPHY_EDGE_ROW_33_Left_79 VGND VGND VPWR VPWR sky130_fd_sc_hd__decap_3
XPHY_EDGE_ROW_19_Right_19 VGND VGND VPWR VPWR sky130_fd_sc_hd__decap_3
XFILLER_31_105 VGND VGND VPWR VPWR sky130_fd_sc_hd__decap_6
XFILLER_31_149 VPWR VGND VPWR VGND sky130_ef_sc_hd__decap_12
XPHY_EDGE_ROW_28_Right_28 VGND VGND VPWR VPWR sky130_fd_sc_hd__decap_3
XFILLER_39_205 VPWR VGND VPWR VGND sky130_ef_sc_hd__decap_12
XPHY_EDGE_ROW_37_Right_37 VGND VGND VPWR VPWR sky130_fd_sc_hd__decap_3
XFILLER_39_249 VPWR VGND VPWR VGND sky130_ef_sc_hd__decap_12
XTAP_TAPCELL_ROW_17_174 VGND VPWR sky130_fd_sc_hd__tapvpwrvgnd_1
XFILLER_22_138 VGND VGND VPWR VPWR sky130_fd_sc_hd__fill_2
XFILLER_7_81 VPWR VGND VPWR VGND sky130_ef_sc_hd__decap_12
XFILLER_13_105 VGND VGND VPWR VPWR sky130_fd_sc_hd__decap_6
XFILLER_13_149 VPWR VGND VPWR VGND sky130_ef_sc_hd__decap_12
XFILLER_26_46 VGND VGND VPWR VPWR sky130_fd_sc_hd__decap_3
XFILLER_21_193 VPWR VGND VPWR VGND sky130_ef_sc_hd__decap_12
XFILLER_3_39 VPWR VGND VPWR VGND sky130_ef_sc_hd__decap_12
XFILLER_8_197 VPWR VGND VPWR VGND sky130_ef_sc_hd__decap_12
XFILLER_8_153 VPWR VGND VPWR VGND sky130_ef_sc_hd__decap_12
XFILLER_12_15 VPWR VGND VPWR VGND sky130_ef_sc_hd__decap_12
XTAP_TAPCELL_ROW_28_225 VGND VPWR sky130_fd_sc_hd__tapvpwrvgnd_1
XFILLER_5_167 VGND VGND VPWR VPWR sky130_fd_sc_hd__fill_1
XTAP_TAPCELL_ROW_11_147 VGND VPWR sky130_fd_sc_hd__tapvpwrvgnd_1
XPHY_EDGE_ROW_36_Left_82 VGND VGND VPWR VPWR sky130_fd_sc_hd__decap_3
XPHY_EDGE_ROW_20_Left_66 VGND VGND VPWR VPWR sky130_fd_sc_hd__decap_3
XFILLER_32_233 VPWR VGND VPWR VGND sky130_ef_sc_hd__decap_12
XFILLER_0_29 VPWR VGND VPWR VGND sky130_ef_sc_hd__decap_12
XFILLER_9_27 VPWR VGND VPWR VGND sky130_ef_sc_hd__decap_12
XFILLER_14_233 VPWR VGND VPWR VGND sky130_ef_sc_hd__decap_12
XTAP_TAPCELL_ROW_0_94 VGND VPWR sky130_fd_sc_hd__tapvpwrvgnd_1
XFILLER_1_181 VPWR VGND VPWR VGND sky130_ef_sc_hd__decap_12
XTAP_TAPCELL_ROW_30_231 VGND VPWR sky130_fd_sc_hd__tapvpwrvgnd_1
XFILLER_11_225 VPWR VGND VPWR VGND sky130_ef_sc_hd__decap_12
XFILLER_11_269 VGND VGND VPWR VPWR sky130_fd_sc_hd__fill_2
XFILLER_1_3 VPWR VGND VPWR VGND sky130_ef_sc_hd__decap_12
XFILLER_6_251 VGND VGND VPWR VPWR sky130_fd_sc_hd__fill_1
XFILLER_37_111 VGND VGND VPWR VPWR sky130_fd_sc_hd__fill_1
XFILLER_29_57 VPWR VGND VPWR VGND sky130_ef_sc_hd__decap_12
XFILLER_43_169 VPWR VGND VPWR VGND sky130_ef_sc_hd__decap_12
XFILLER_43_125 VPWR VGND VPWR VGND sky130_ef_sc_hd__decap_12
XFILLER_28_166 VPWR VGND VPWR VGND sky130_ef_sc_hd__decap_12
XFILLER_20_9 VPWR VGND VPWR VGND sky130_ef_sc_hd__decap_12
XFILLER_19_100 VGND VGND VPWR VPWR sky130_fd_sc_hd__decap_4
XFILLER_19_111 VGND VGND VPWR VPWR sky130_fd_sc_hd__fill_1
XFILLER_19_122 VGND VGND VPWR VPWR sky130_fd_sc_hd__decap_8
XFILLER_25_169 VPWR VGND VPWR VGND sky130_ef_sc_hd__decap_12
XFILLER_40_139 VGND VGND VPWR VPWR sky130_fd_sc_hd__fill_1
XFILLER_31_69 VPWR VGND VPWR VGND sky130_ef_sc_hd__decap_12
Xoutput25 net25 VGND VGND VPWR VPWR instruction[3] sky130_fd_sc_hd__buf_2
XFILLER_39_217 VGND VGND VPWR VPWR sky130_fd_sc_hd__decap_6
XTAP_TAPCELL_ROW_17_175 VGND VPWR sky130_fd_sc_hd__tapvpwrvgnd_1
XFILLER_7_93 VPWR VGND VPWR VGND sky130_ef_sc_hd__decap_12
XFILLER_45_209 VPWR VGND VPWR VGND sky130_ef_sc_hd__decap_12
XFILLER_21_161 VGND VGND VPWR VPWR sky130_fd_sc_hd__decap_6
XTAP_TAPCELL_ROW_8_132 VGND VPWR sky130_fd_sc_hd__tapvpwrvgnd_1
XFILLER_44_253 VPWR VGND VPWR VGND sky130_ef_sc_hd__decap_12
XFILLER_29_261 VGND VGND VPWR VPWR sky130_fd_sc_hd__decap_6
XFILLER_36_209 VPWR VGND VPWR VGND sky130_ef_sc_hd__decap_12
XFILLER_8_121 VPWR VGND VPWR VGND sky130_ef_sc_hd__decap_12
XFILLER_8_165 VPWR VGND VPWR VGND sky130_ef_sc_hd__decap_12
XFILLER_10_109 VPWR VGND VPWR VGND sky130_ef_sc_hd__decap_12
XFILLER_12_27 VGND VGND VPWR VPWR sky130_fd_sc_hd__fill_1
XFILLER_18_209 VPWR VGND VPWR VGND sky130_ef_sc_hd__decap_12
XFILLER_26_253 VPWR VGND VPWR VGND sky130_ef_sc_hd__decap_12
XTAP_TAPCELL_ROW_28_226 VGND VPWR sky130_fd_sc_hd__tapvpwrvgnd_1
XFILLER_37_57 VPWR VGND VPWR VGND sky130_ef_sc_hd__decap_12
XFILLER_41_223 VGND VGND VPWR VPWR sky130_fd_sc_hd__fill_1
XFILLER_5_113 VPWR VGND VPWR VGND sky130_ef_sc_hd__decap_12
XTAP_TAPCELL_ROW_11_148 VGND VPWR sky130_fd_sc_hd__tapvpwrvgnd_1
XFILLER_32_245 VGND VGND VPWR VPWR sky130_fd_sc_hd__decap_6
XFILLER_4_83 VGND VGND VPWR VPWR sky130_fd_sc_hd__fill_1
XTAP_TAPCELL_ROW_2_105 VGND VPWR sky130_fd_sc_hd__tapvpwrvgnd_1
XFILLER_23_15 VPWR VGND VPWR VGND sky130_ef_sc_hd__decap_12
XFILLER_23_223 VGND VGND VPWR VPWR sky130_fd_sc_hd__fill_1
XFILLER_14_245 VGND VGND VPWR VPWR sky130_fd_sc_hd__decap_6
XFILLER_9_39 VPWR VGND VPWR VGND sky130_ef_sc_hd__decap_12
XFILLER_13_81 VPWR VGND VPWR VGND sky130_ef_sc_hd__decap_12
XFILLER_36_7 VPWR VGND VPWR VGND sky130_ef_sc_hd__decap_12
XTAP_TAPCELL_ROW_0_95 VGND VPWR sky130_fd_sc_hd__tapvpwrvgnd_1
XFILLER_1_193 VPWR VGND VPWR VGND sky130_ef_sc_hd__decap_12
XFILLER_29_6 VPWR VGND VPWR VGND sky130_ef_sc_hd__decap_12
XTAP_TAPCELL_ROW_30_232 VGND VPWR sky130_fd_sc_hd__tapvpwrvgnd_1
XFILLER_18_15 VPWR VGND VPWR VGND sky130_ef_sc_hd__decap_12
XFILLER_18_48 VPWR VGND VPWR VGND sky130_ef_sc_hd__decap_12
XFILLER_11_237 VPWR VGND VPWR VGND sky130_ef_sc_hd__decap_12
X_099_ _014_ net8 _030_ _039_ VGND VGND VPWR VPWR _050_ sky130_fd_sc_hd__a211o_1
XFILLER_1_51 VGND VGND VPWR VPWR sky130_fd_sc_hd__decap_4
XFILLER_37_167 VGND VGND VPWR VPWR sky130_fd_sc_hd__fill_1
XFILLER_20_27 VGND VGND VPWR VPWR sky130_fd_sc_hd__fill_1
XFILLER_45_57 VPWR VGND VPWR VGND sky130_ef_sc_hd__decap_12
XFILLER_43_137 VPWR VGND VPWR VGND sky130_ef_sc_hd__decap_12
XFILLER_28_178 VPWR VGND VPWR VGND sky130_ef_sc_hd__decap_12
XFILLER_6_29 VPWR VGND VPWR VGND sky130_ef_sc_hd__decap_12
XFILLER_19_134 VPWR VGND VPWR VGND sky130_ef_sc_hd__decap_12
XFILLER_33_181 VPWR VGND VPWR VGND sky130_ef_sc_hd__decap_12
XFILLER_0_225 VPWR VGND VPWR VGND sky130_ef_sc_hd__decap_12
XPHY_EDGE_ROW_1_Right_1 VGND VGND VPWR VPWR sky130_fd_sc_hd__decap_3
Xoutput26 net26 VGND VGND VPWR VPWR instruction[4] sky130_fd_sc_hd__buf_2
XTAP_TAPCELL_ROW_17_176 VGND VPWR sky130_fd_sc_hd__tapvpwrvgnd_1
XFILLER_22_118 VPWR VGND VPWR VGND sky130_ef_sc_hd__decap_12
XFILLER_15_181 VPWR VGND VPWR VGND sky130_ef_sc_hd__decap_12
XFILLER_30_195 VGND VGND VPWR VPWR sky130_fd_sc_hd__fill_1
XFILLER_26_26 VGND VGND VPWR VPWR sky130_fd_sc_hd__fill_2
XFILLER_38_251 VGND VGND VPWR VPWR sky130_fd_sc_hd__fill_1
XTAP_TAPCELL_ROW_8_133 VGND VPWR sky130_fd_sc_hd__tapvpwrvgnd_1
XFILLER_44_265 VGND VGND VPWR VPWR sky130_fd_sc_hd__decap_6
XFILLER_44_221 VPWR VGND VPWR VGND sky130_ef_sc_hd__decap_12
XFILLER_8_177 VPWR VGND VPWR VGND sky130_ef_sc_hd__decap_12
XFILLER_8_133 VGND VGND VPWR VPWR sky130_fd_sc_hd__decap_6
XFILLER_12_195 VGND VGND VPWR VPWR sky130_fd_sc_hd__fill_1
XFILLER_26_221 VPWR VGND VPWR VGND sky130_ef_sc_hd__decap_12
XFILLER_26_265 VGND VGND VPWR VPWR sky130_fd_sc_hd__decap_6
XTAP_TAPCELL_ROW_36_260 VGND VPWR sky130_fd_sc_hd__tapvpwrvgnd_1
XFILLER_37_69 VPWR VGND VPWR VGND sky130_ef_sc_hd__decap_12
XTAP_TAPCELL_ROW_11_149 VGND VPWR sky130_fd_sc_hd__tapvpwrvgnd_1
XFILLER_5_169 VPWR VGND VPWR VGND sky130_ef_sc_hd__decap_12
XFILLER_5_125 VPWR VGND VPWR VGND sky130_ef_sc_hd__decap_12
XFILLER_27_91 VPWR VGND VPWR VGND sky130_ef_sc_hd__decap_12
XTAP_TAPCELL_ROW_42_285 VGND VPWR sky130_fd_sc_hd__tapvpwrvgnd_1
XTAP_TAPCELL_ROW_2_106 VGND VPWR sky130_fd_sc_hd__tapvpwrvgnd_1
XFILLER_23_27 VGND VGND VPWR VPWR sky130_fd_sc_hd__decap_8
XFILLER_23_38 VPWR VGND VPWR VGND sky130_ef_sc_hd__decap_12
XFILLER_2_139 VGND VGND VPWR VPWR sky130_fd_sc_hd__fill_1
XFILLER_13_93 VPWR VGND VPWR VGND sky130_ef_sc_hd__decap_12
XTAP_TAPCELL_ROW_0_96 VGND VPWR sky130_fd_sc_hd__tapvpwrvgnd_1
XFILLER_1_161 VGND VGND VPWR VPWR sky130_fd_sc_hd__decap_6
XFILLER_9_261 VGND VGND VPWR VPWR sky130_fd_sc_hd__decap_8
XTAP_TAPCELL_ROW_30_233 VGND VPWR sky130_fd_sc_hd__tapvpwrvgnd_1
XFILLER_18_27 VGND VGND VPWR VPWR sky130_fd_sc_hd__fill_1
XFILLER_11_205 VPWR VGND VPWR VGND sky130_ef_sc_hd__decap_12
XFILLER_34_26 VGND VGND VPWR VPWR sky130_fd_sc_hd__fill_2
XFILLER_11_249 VPWR VGND VPWR VGND sky130_ef_sc_hd__decap_12
XFILLER_6_253 VPWR VGND VPWR VGND sky130_ef_sc_hd__decap_12
X_098_ net34 _025_ _026_ _038_ VGND VGND VPWR VPWR _049_ sky130_fd_sc_hd__a211o_1
XFILLER_37_113 VPWR VGND VPWR VGND sky130_ef_sc_hd__decap_12
XFILLER_43_105 VGND VGND VPWR VPWR sky130_fd_sc_hd__decap_6
XFILLER_28_102 VPWR VGND VPWR VGND sky130_ef_sc_hd__decap_12
XFILLER_29_48 VGND VGND VPWR VPWR sky130_fd_sc_hd__decap_8
XFILLER_45_69 VPWR VGND VPWR VGND sky130_ef_sc_hd__decap_12
XFILLER_43_149 VPWR VGND VPWR VGND sky130_ef_sc_hd__decap_12
XFILLER_3_223 VGND VGND VPWR VPWR sky130_fd_sc_hd__fill_1
XFILLER_10_83 VGND VGND VPWR VPWR sky130_fd_sc_hd__fill_1
XFILLER_19_113 VGND VGND VPWR VPWR sky130_fd_sc_hd__decap_4
XFILLER_19_146 VGND VGND VPWR VPWR sky130_fd_sc_hd__fill_2
XFILLER_33_193 VPWR VGND VPWR VGND sky130_ef_sc_hd__decap_12
Xoutput27 net27 VGND VGND VPWR VPWR instruction[5] sky130_fd_sc_hd__buf_2
XFILLER_0_237 VPWR VGND VPWR VGND sky130_ef_sc_hd__decap_12
Xoutput16 net16 VGND VGND VPWR VPWR instruction[0] sky130_fd_sc_hd__buf_2
XFILLER_15_193 VPWR VGND VPWR VGND sky130_ef_sc_hd__decap_12
Xclkbuf_0_clk clk VGND VGND VPWR VPWR clknet_0_clk sky130_fd_sc_hd__clkbuf_16
XFILLER_7_51 VGND VGND VPWR VPWR sky130_fd_sc_hd__decap_4
XFILLER_30_141 VPWR VGND VPWR VGND sky130_ef_sc_hd__decap_12